# generated using pymatgen
data_Mg(ReO4)2
_symmetry_space_group_name_H-M   'P 1'
_cell_length_a   5.80473686
_cell_length_b   5.80462912
_cell_length_c   6.08186540
_cell_angle_alpha   90.00066863
_cell_angle_beta   89.99759167
_cell_angle_gamma   120.00561070
_symmetry_Int_Tables_number   1
_chemical_formula_structural   Mg(ReO4)2
_chemical_formula_sum   'Mg1 Re2 O8'
_cell_volume   177.45976125
_cell_formula_units_Z   1
loop_
 _symmetry_equiv_pos_site_id
 _symmetry_equiv_pos_as_xyz
  1  'x, y, z'
loop_
 _atom_site_type_symbol
 _atom_site_label
 _atom_site_symmetry_multiplicity
 _atom_site_fract_x
 _atom_site_fract_y
 _atom_site_fract_z
 _atom_site_occupancy
  Mg  Mg0  1  0.99998194  0.00000008  -0.00000091  1
  Re  Re1  1  0.33329572  0.66664305  0.28825848  1
  Re  Re2  1  0.66666762  0.33335663  0.71174172  1
  O  O3  1  0.16811929  0.83124461  0.19343351  1
  O  O4  1  0.16867090  0.33676595  0.19359230  1
  O  O5  1  0.33326451  0.66671503  0.57434480  1
  O  O6  1  0.33681115  0.16818140  0.80645745  1
  O  O7  1  0.66315331  0.83181897  0.19354181  1
  O  O8  1  0.66669879  0.33328505  0.42565598  1
  O  O9  1  0.83129175  0.66323294  0.80640693  1
  O  O10  1  0.83184402  0.16875629  0.80656593  1
