# generated using pymatgen
data_Bi(PdO2)2
_symmetry_space_group_name_H-M   'P 1'
_cell_length_a   6.75642705
_cell_length_b   6.75642705
_cell_length_c   4.56120324
_cell_angle_alpha   90.00000000
_cell_angle_beta   90.00000000
_cell_angle_gamma   90.00000000
_symmetry_Int_Tables_number   1
_chemical_formula_structural   Bi(PdO2)2
_chemical_formula_sum   'Bi2 Pd4 O8'
_cell_volume   208.21576476
_cell_formula_units_Z   2
loop_
 _symmetry_equiv_pos_site_id
 _symmetry_equiv_pos_as_xyz
  1  'x, y, z'
loop_
 _atom_site_type_symbol
 _atom_site_label
 _atom_site_symmetry_multiplicity
 _atom_site_fract_x
 _atom_site_fract_y
 _atom_site_fract_z
 _atom_site_occupancy
  Bi  Bi0  1  0.00000000  0.50000000  0.49679514  1
  Bi  Bi1  1  0.50000000  0.00000000  0.50320486  1
  Pd  Pd2  1  0.75000000  0.75000000  0.00000000  1
  Pd  Pd3  1  0.75000000  0.25000000  0.00000000  1
  Pd  Pd4  1  0.25000000  0.75000000  0.00000000  1
  Pd  Pd5  1  0.25000000  0.25000000  0.00000000  1
  O  O6  1  0.27831271  0.50000000  0.77239831  1
  O  O7  1  0.50000000  0.72168729  0.22760169  1
  O  O8  1  0.00000000  0.77831271  0.77239831  1
  O  O9  1  0.77831271  0.00000000  0.22760169  1
  O  O10  1  0.22168729  0.00000000  0.22760169  1
  O  O11  1  0.72168729  0.50000000  0.77239831  1
  O  O12  1  0.50000000  0.27831271  0.22760169  1
  O  O13  1  0.00000000  0.22168729  0.77239831  1
