# generated using pymatgen
data_RhCl3
_symmetry_space_group_name_H-M   'P 1'
_cell_length_a   6.01209483
_cell_length_b   6.01209428
_cell_length_c   5.98062711
_cell_angle_alpha   99.17396384
_cell_angle_beta   99.17395493
_cell_angle_gamma   120.01128513
_symmetry_Int_Tables_number   1
_chemical_formula_structural   RhCl3
_chemical_formula_sum   'Rh2 Cl6'
_cell_volume   177.41402140
_cell_formula_units_Z   2
loop_
 _symmetry_equiv_pos_site_id
 _symmetry_equiv_pos_as_xyz
  1  'x, y, z'
loop_
 _atom_site_type_symbol
 _atom_site_label
 _atom_site_symmetry_multiplicity
 _atom_site_fract_x
 _atom_site_fract_y
 _atom_site_fract_z
 _atom_site_occupancy
  Rh  Rh0  1  0.16658316  0.83341684  0.00000000  1
  Rh  Rh1  1  0.83341684  0.16658316  -0.00000000  1
  Cl  Cl2  1  0.92202013  0.57324457  0.23174546  1
  Cl  Cl3  1  0.42675543  0.07797986  0.76825454  1
  Cl  Cl4  1  0.77559417  0.77559417  0.76622278  1
  Cl  Cl5  1  0.22440583  0.22440583  0.23377722  1
  Cl  Cl6  1  0.57324457  0.92202014  0.23174546  1
  Cl  Cl7  1  0.07797987  0.42675543  0.76825454  1
