# generated using pymatgen
data_CrAg(PS3)2
_symmetry_space_group_name_H-M   'P 1'
_cell_length_a   5.94802010
_cell_length_b   6.76125795
_cell_length_c   10.64294105
_cell_angle_alpha   90.00000000
_cell_angle_beta   90.00000000
_cell_angle_gamma   105.94927095
_symmetry_Int_Tables_number   1
_chemical_formula_structural   CrAg(PS3)2
_chemical_formula_sum   'Cr2 Ag2 P4 S12'
_cell_volume   411.54118236
_cell_formula_units_Z   2
loop_
 _symmetry_equiv_pos_site_id
 _symmetry_equiv_pos_as_xyz
  1  'x, y, z'
loop_
 _atom_site_type_symbol
 _atom_site_label
 _atom_site_symmetry_multiplicity
 _atom_site_fract_x
 _atom_site_fract_y
 _atom_site_fract_z
 _atom_site_occupancy
  Cr  Cr0  1  0.25000000  -0.00000000  0.08181334  1
  Cr  Cr1  1  0.75000000  -0.00000000  0.91818666  1
  Ag  Ag2  1  0.25000000  -0.00000000  0.43863410  1
  Ag  Ag3  1  0.75000000  -0.00000000  0.56136590  1
  P  P4  1  0.20208795  0.82854850  0.75444457  1
  P  P5  1  0.79791205  0.17145150  0.24555543  1
  P  P6  1  0.70208795  0.82854850  0.24555543  1
  P  P7  1  0.29791205  0.17145150  0.75444457  1
  S  S8  1  0.01687618  0.71243243  0.60406113  1
  S  S9  1  0.49202019  0.22577762  0.92556610  1
  S  S10  1  0.50797981  0.77422238  0.07443390  1
  S  S11  1  0.51687618  0.71243243  0.39593887  1
  S  S12  1  0.98360244  0.23907396  0.76853189  1
  S  S13  1  0.48360244  0.23907396  0.23146811  1
  S  S14  1  0.48312382  0.28756757  0.60406113  1
  S  S15  1  0.51639756  0.76092604  0.76853189  1
  S  S16  1  0.98312382  0.28756757  0.39593887  1
  S  S17  1  0.00797981  0.77422238  0.92556610  1
  S  S18  1  0.99202019  0.22577762  0.07443390  1
  S  S19  1  0.01639756  0.76092604  0.23146811  1
