# generated using pymatgen
data_BiAsO4
_symmetry_space_group_name_H-M   'P 1'
_cell_length_a   6.82484483
_cell_length_b   7.21586788
_cell_length_c   8.37663246
_cell_angle_alpha   90.00000000
_cell_angle_beta   126.92075055
_cell_angle_gamma   90.00000000
_symmetry_Int_Tables_number   1
_chemical_formula_structural   BiAsO4
_chemical_formula_sum   'Bi4 As4 O16'
_cell_volume   329.80059961
_cell_formula_units_Z   4
loop_
 _symmetry_equiv_pos_site_id
 _symmetry_equiv_pos_as_xyz
  1  'x, y, z'
loop_
 _atom_site_type_symbol
 _atom_site_label
 _atom_site_symmetry_multiplicity
 _atom_site_fract_x
 _atom_site_fract_y
 _atom_site_fract_z
 _atom_site_occupancy
  Bi  Bi0  1  0.19588743  0.63781353  0.77940551  1
  Bi  Bi1  1  0.80411257  0.13781353  0.72059449  1
  Bi  Bi2  1  0.80411257  0.36218647  0.22059449  1
  Bi  Bi3  1  0.19588743  0.86218647  0.27940551  1
  As  As4  1  0.68681258  0.66156135  0.79901344  1
  As  As5  1  0.31318742  0.16156135  0.70098656  1
  As  As6  1  0.31318742  0.33843865  0.20098656  1
  As  As7  1  0.68681258  0.83843865  0.29901344  1
  O  O8  1  0.12740756  0.14517128  0.10852348  1
  O  O9  1  0.87259244  0.64517128  0.39147652  1
  O  O10  1  0.83770297  0.49793262  0.76289028  1
  O  O11  1  0.16229703  -0.00206738  0.73710972  1
  O  O12  1  0.16229703  0.50206738  0.23710972  1
  O  O13  1  0.83770297  0.00206738  0.26289028  1
  O  O14  1  0.63886877  0.89568055  0.47565344  1
  O  O15  1  0.38457644  0.79250010  0.10760022  1
  O  O16  1  0.36113123  0.10431945  0.52434656  1
  O  O17  1  0.63886877  0.60431945  0.97565344  1
  O  O18  1  0.12740756  0.35482872  0.60852348  1
  O  O19  1  0.61542356  0.29250010  0.39239978  1
  O  O20  1  0.61542356  0.20749990  0.89239978  1
  O  O21  1  0.38457644  0.70749990  0.60760022  1
  O  O22  1  0.36113123  0.39568055  0.02434656  1
  O  O23  1  0.87259244  0.85482872  0.89147652  1
