# generated using pymatgen
data_Ta3TeI7
_symmetry_space_group_name_H-M   'P 1'
_cell_length_a   7.65408097
_cell_length_b   7.65408097
_cell_length_c   14.08024837
_cell_angle_alpha   90.00000000
_cell_angle_beta   90.00000000
_cell_angle_gamma   119.99999538
_symmetry_Int_Tables_number   1
_chemical_formula_structural   Ta3TeI7
_chemical_formula_sum   'Ta6 Te2 I14'
_cell_volume   714.37635626
_cell_formula_units_Z   2
loop_
 _symmetry_equiv_pos_site_id
 _symmetry_equiv_pos_as_xyz
  1  'x, y, z'
loop_
 _atom_site_type_symbol
 _atom_site_label
 _atom_site_symmetry_multiplicity
 _atom_site_fract_x
 _atom_site_fract_y
 _atom_site_fract_z
 _atom_site_occupancy
  Ta  Ta0  1  0.13050626  0.86949374  0.75010518  1
  Ta  Ta1  1  0.26101252  0.13050626  0.25010518  1
  Ta  Ta2  1  0.86949374  0.73898748  0.25010518  1
  Ta  Ta3  1  0.13050626  0.26101252  0.75010518  1
  Ta  Ta4  1  0.73898748  0.86949374  0.75010518  1
  Ta  Ta5  1  0.86949374  0.13050626  0.25010518  1
  Te  Te6  1  0.00000000  0.00000000  0.90039536  1
  Te  Te7  1  0.00000000  0.00000000  0.40039536  1
  I  I8  1  0.83058219  0.66116437  0.61811729  1
  I  I9  1  0.16941781  0.33883563  0.11811729  1
  I  I10  1  0.66116437  0.83058219  0.11811729  1
  I  I11  1  0.83058219  0.16941781  0.61811729  1
  I  I12  1  0.66666700  0.33333300  0.14478563  1
  I  I13  1  0.33333300  0.66666700  0.64478563  1
  I  I14  1  0.99647007  0.49823454  0.85961654  1
  I  I15  1  0.00352993  0.50176546  0.35961654  1
  I  I16  1  0.49823454  0.50176546  0.35961654  1
  I  I17  1  0.33883563  0.16941781  0.61811729  1
  I  I18  1  0.50176546  0.00352993  0.85961654  1
  I  I19  1  0.49823454  0.99647007  0.35961654  1
  I  I20  1  0.50176546  0.49823454  0.85961654  1
  I  I21  1  0.16941781  0.83058219  0.11811729  1
