# generated using pymatgen
data_VCl3
_symmetry_space_group_name_H-M   'P 1'
_cell_length_a   6.70519358
_cell_length_b   6.70519328
_cell_length_c   6.70519319
_cell_angle_alpha   53.22909294
_cell_angle_beta   53.22909933
_cell_angle_gamma   53.22909602
_symmetry_Int_Tables_number   1
_chemical_formula_structural   VCl3
_chemical_formula_sum   'V2 Cl6'
_cell_volume   179.36229092
_cell_formula_units_Z   2
loop_
 _symmetry_equiv_pos_site_id
 _symmetry_equiv_pos_as_xyz
  1  'x, y, z'
loop_
 _atom_site_type_symbol
 _atom_site_label
 _atom_site_symmetry_multiplicity
 _atom_site_fract_x
 _atom_site_fract_y
 _atom_site_fract_z
 _atom_site_occupancy
  V  V0  1  0.66664177  0.66664177  0.66664177  1
  V  V1  1  0.33335823  0.33335823  0.33335823  1
  Cl  Cl2  1  0.57087603  0.27080429  0.92133750  1
  Cl  Cl3  1  0.27080429  0.92133750  0.57087603  1
  Cl  Cl4  1  0.07866250  0.42912397  0.72919571  1
  Cl  Cl5  1  0.72919571  0.07866250  0.42912397  1
  Cl  Cl6  1  0.42912397  0.72919571  0.07866250  1
  Cl  Cl7  1  0.92133750  0.57087603  0.27080429  1
