# generated using pymatgen
data_PSe
_symmetry_space_group_name_H-M   'P 1'
_cell_length_a   11.15653129
_cell_length_b   7.39330984
_cell_length_c   11.51766630
_cell_angle_alpha   90.00000000
_cell_angle_beta   116.13517520
_cell_angle_gamma   90.00000000
_symmetry_Int_Tables_number   1
_chemical_formula_structural   PSe
_chemical_formula_sum   'P16 Se16'
_cell_volume   852.88708934
_cell_formula_units_Z   16
loop_
 _symmetry_equiv_pos_site_id
 _symmetry_equiv_pos_as_xyz
  1  'x, y, z'
loop_
 _atom_site_type_symbol
 _atom_site_label
 _atom_site_symmetry_multiplicity
 _atom_site_fract_x
 _atom_site_fract_y
 _atom_site_fract_z
 _atom_site_occupancy
  P  P0  1  0.73567687  0.99598009  0.34570032  1
  P  P1  1  0.17384649  0.62707815  0.80601005  1
  P  P2  1  0.17384649  0.87292185  0.30601005  1
  P  P3  1  0.82615351  0.37292185  0.19398995  1
  P  P4  1  0.66941611  0.30496495  0.55142798  1
  P  P5  1  0.33058389  0.80496495  0.94857202  1
  P  P6  1  0.33058389  0.69503505  0.44857202  1
  P  P7  1  0.66941611  0.19503505  0.05142798  1
  P  P8  1  0.82615351  0.12707815  0.69398995  1
  P  P9  1  0.16857580  0.19207491  0.73958826  1
  P  P10  1  0.16857580  0.30792509  0.23958826  1
  P  P11  1  0.83142420  0.80792509  0.26041174  1
  P  P12  1  0.73567687  0.50401991  0.84570032  1
  P  P13  1  0.26432313  0.00401991  0.65429968  1
  P  P14  1  0.26432313  0.49598009  0.15429968  1
  P  P15  1  0.83142420  0.69207491  0.76041174  1
  Se  Se16  1  0.10237081  0.71671068  0.11213035  1
  Se  Se17  1  0.89762919  0.21671068  0.38786965  1
  Se  Se18  1  0.55753199  0.38877453  0.66928177  1
  Se  Se19  1  0.44246801  0.88877453  0.83071823  1
  Se  Se20  1  0.44246801  0.61122547  0.33071823  1
  Se  Se21  1  0.55753199  0.11122547  0.16928177  1
  Se  Se22  1  0.80404597  0.55068846  0.57102158  1
  Se  Se23  1  0.80404597  0.94931154  0.07102158  1
  Se  Se24  1  0.19595403  0.44931154  0.42897842  1
  Se  Se25  1  0.67056476  0.91830407  0.69293141  1
  Se  Se26  1  0.32943524  0.41830407  0.80706859  1
  Se  Se27  1  0.32943524  0.08169593  0.30706859  1
  Se  Se28  1  0.67056476  0.58169593  0.19293141  1
  Se  Se29  1  0.10237081  0.78328932  0.61213035  1
  Se  Se30  1  0.19595403  0.05068846  0.92897842  1
  Se  Se31  1  0.89762919  0.28328932  0.88786965  1
