# generated using pymatgen
data_CrS2
_symmetry_space_group_name_H-M   'P 1'
_cell_length_a   3.09678606
_cell_length_b   3.09678562
_cell_length_c   12.32755044
_cell_angle_alpha   104.64839796
_cell_angle_beta   97.31321750
_cell_angle_gamma   59.99710706
_symmetry_Int_Tables_number   1
_chemical_formula_structural   CrS2
_chemical_formula_sum   'Cr2 S4'
_cell_volume   99.05263210
_cell_formula_units_Z   2
loop_
 _symmetry_equiv_pos_site_id
 _symmetry_equiv_pos_as_xyz
  1  'x, y, z'
loop_
 _atom_site_type_symbol
 _atom_site_label
 _atom_site_symmetry_multiplicity
 _atom_site_fract_x
 _atom_site_fract_y
 _atom_site_fract_z
 _atom_site_occupancy
  Cr  Cr0  1  0.00000000  0.00000000  0.00000000  1
  Cr  Cr1  1  -0.00000000  0.50000000  0.50000000  1
  S  S2  1  0.33374106  0.45603774  0.12229668  1
  S  S3  1  0.33377228  0.95606802  0.62229574  1
  S  S4  1  0.66622772  0.04393198  0.37770426  1
  S  S5  1  0.66625894  0.54396226  0.87770332  1
