# generated using pymatgen
data_HgPSe3
_symmetry_space_group_name_H-M   'P 1'
_cell_length_a   6.62097183
_cell_length_b   6.66608045
_cell_length_c   13.82521961
_cell_angle_alpha   85.70099616
_cell_angle_beta   81.31835175
_cell_angle_gamma   60.22359079
_symmetry_Int_Tables_number   1
_chemical_formula_structural   HgPSe3
_chemical_formula_sum   'Hg4 P4 Se12'
_cell_volume   523.55739213
_cell_formula_units_Z   4
loop_
 _symmetry_equiv_pos_site_id
 _symmetry_equiv_pos_as_xyz
  1  'x, y, z'
loop_
 _atom_site_type_symbol
 _atom_site_label
 _atom_site_symmetry_multiplicity
 _atom_site_fract_x
 _atom_site_fract_y
 _atom_site_fract_z
 _atom_site_occupancy
  Hg  Hg0  1  0.76813630  0.81373165  0.06468609  1
  Hg  Hg1  1  0.23186370  0.18626835  0.93531391  1
  Hg  Hg2  1  0.58186795  0.18626835  0.56468609  1
  Hg  Hg3  1  0.41813205  0.81373165  0.43531391  1
  P  P4  1  0.52997051  0.53278241  0.91594621  1
  P  P5  1  0.06275292  0.46721759  0.41594621  1
  P  P6  1  0.47002949  0.46721759  0.08405379  1
  P  P7  1  0.93724708  0.53278241  0.58405379  1
  Se  Se8  1  0.17175035  0.39323227  0.11289271  1
  Se  Se9  1  0.56498262  0.60676773  0.61289271  1
  Se  Se10  1  0.82824965  0.60676773  0.88710729  1
  Se  Se11  1  0.03582757  0.16372668  0.37596060  1
  Se  Se12  1  0.96417243  0.83627332  0.62403940  1
  Se  Se13  1  0.19955424  0.83627332  0.87596060  1
  Se  Se14  1  0.38775821  0.78172153  0.15996335  1
  Se  Se15  1  0.83052026  0.78172153  0.34003665  1
  Se  Se16  1  0.61224179  0.21827847  0.84003665  1
  Se  Se17  1  0.16947974  0.21827847  0.65996335  1
  Se  Se18  1  0.43501738  0.39323227  0.38710729  1
  Se  Se19  1  0.80044576  0.16372668  0.12403940  1
