# generated using pymatgen
data_Nb2O5
_symmetry_space_group_name_H-M   'P 1'
_cell_length_a   3.87293613
_cell_length_b   4.02940748
_cell_length_c   6.83179922
_cell_angle_alpha   90.73292886
_cell_angle_beta   106.46617441
_cell_angle_gamma   90.00000428
_symmetry_Int_Tables_number   1
_chemical_formula_structural   Nb2O5
_chemical_formula_sum   'Nb2 O5'
_cell_volume   102.23292997
_cell_formula_units_Z   1
loop_
 _symmetry_equiv_pos_site_id
 _symmetry_equiv_pos_as_xyz
  1  'x, y, z'
loop_
 _atom_site_type_symbol
 _atom_site_label
 _atom_site_symmetry_multiplicity
 _atom_site_fract_x
 _atom_site_fract_y
 _atom_site_fract_z
 _atom_site_occupancy
  Nb  Nb0  1  0.14631583  0.06489310  0.29263167  1
  Nb  Nb1  1  0.85368417  0.93510690  0.70736833  1
  O  O2  1  0.14862265  0.51535634  0.29724530  1
  O  O3  1  0.85137735  0.48464366  0.70275470  1
  O  O4  1  0.00000000  0.00000000  0.00000000  1
  O  O5  1  0.31473657  0.99583691  0.62947215  1
  O  O6  1  0.68526343  0.00416309  0.37052785  1
