# generated using pymatgen
data_Ca(SbO2)4
_symmetry_space_group_name_H-M   'P 1'
_cell_length_a   3.25089336
_cell_length_b   8.12832371
_cell_length_c   8.25968496
_cell_angle_alpha   104.70779757
_cell_angle_beta   101.34874201
_cell_angle_gamma   101.53471471
_symmetry_Int_Tables_number   1
_chemical_formula_structural   Ca(SbO2)4
_chemical_formula_sum   'Ca1 Sb4 O8'
_cell_volume   199.66028261
_cell_formula_units_Z   1
loop_
 _symmetry_equiv_pos_site_id
 _symmetry_equiv_pos_as_xyz
  1  'x, y, z'
loop_
 _atom_site_type_symbol
 _atom_site_label
 _atom_site_symmetry_multiplicity
 _atom_site_fract_x
 _atom_site_fract_y
 _atom_site_fract_z
 _atom_site_occupancy
  Ca  Ca0  1  0.52287249  0.10627856  0.93958730  1
  Sb  Sb1  1  0.73942379  0.13664371  0.34232239  1
  Sb  Sb2  1  0.62093534  0.49934924  0.74265004  1
  Sb  Sb3  1  0.33570404  0.49629264  0.17525204  1
  Sb  Sb4  1  0.18830906  0.83059405  0.54618606  1
  O  O5  1  0.53279696  0.64466495  0.42106534  1
  O  O6  1  0.79444820  0.35140163  0.23761770  1
  O  O7  1  0.16500295  0.64279937  0.68734794  1
  O  O8  1  0.41069495  0.30188694  0.51963137  1
  O  O9  1  0.11336931  0.07031609  0.15652460  1
  O  O10  1  0.13364210  0.32594824  0.94146245  1
  O  O11  1  0.83531276  0.94024396  0.73053642  1
  O  O12  1  0.87936005  0.62968662  0.12917036  1
