# generated using pymatgen
data_UBr4
_symmetry_space_group_name_H-M   'P 1'
_cell_length_a   7.02485031
_cell_length_b   7.06332049
_cell_length_c   7.06332072
_cell_angle_alpha   77.30215460
_cell_angle_beta   86.03763093
_cell_angle_gamma   86.03762860
_symmetry_Int_Tables_number   1
_chemical_formula_structural   UBr4
_chemical_formula_sum   'U2 Br8'
_cell_volume   340.56067217
_cell_formula_units_Z   2
loop_
 _symmetry_equiv_pos_site_id
 _symmetry_equiv_pos_as_xyz
  1  'x, y, z'
loop_
 _atom_site_type_symbol
 _atom_site_label
 _atom_site_symmetry_multiplicity
 _atom_site_fract_x
 _atom_site_fract_y
 _atom_site_fract_z
 _atom_site_occupancy
  U  U0  1  0.43814675  0.80244782  0.80244782  1
  U  U1  1  0.56185325  0.19755218  0.19755218  1
  Br  Br2  1  0.33320844  0.55905120  0.17461852  1
  Br  Br3  1  0.66679156  0.82538148  0.44094880  1
  Br  Br4  1  0.75660314  0.94214748  0.94214748  1
  Br  Br5  1  0.24339686  0.05785252  0.05785252  1
  Br  Br6  1  0.85571877  0.33351559  0.33351559  1
  Br  Br7  1  0.14428123  0.66648441  0.66648441  1
  Br  Br8  1  0.33320844  0.17461852  0.55905120  1
  Br  Br9  1  0.66679156  0.44094880  0.82538148  1
