# generated using pymatgen
data_PCl3
_symmetry_space_group_name_H-M   'P 1'
_cell_length_a   6.07635493
_cell_length_b   7.78626677
_cell_length_c   9.37963242
_cell_angle_alpha   90.00000000
_cell_angle_beta   90.00000000
_cell_angle_gamma   90.00000000
_symmetry_Int_Tables_number   1
_chemical_formula_structural   PCl3
_chemical_formula_sum   'P4 Cl12'
_cell_volume   443.77029917
_cell_formula_units_Z   4
loop_
 _symmetry_equiv_pos_site_id
 _symmetry_equiv_pos_as_xyz
  1  'x, y, z'
loop_
 _atom_site_type_symbol
 _atom_site_label
 _atom_site_symmetry_multiplicity
 _atom_site_fract_x
 _atom_site_fract_y
 _atom_site_fract_z
 _atom_site_occupancy
  P  P0  1  0.92404616  0.98826736  0.75000000  1
  P  P1  1  0.42404616  0.51173264  0.25000000  1
  P  P2  1  0.57595384  0.48826736  0.75000000  1
  P  P3  1  0.07595384  0.01173264  0.25000000  1
  Cl  Cl4  1  0.73233422  0.90439543  0.91988641  1
  Cl  Cl5  1  0.23233422  0.59560457  0.08011359  1
  Cl  Cl6  1  0.76766578  0.40439543  0.58011359  1
  Cl  Cl7  1  0.26766578  0.09560457  0.41988641  1
  Cl  Cl8  1  0.83382631  0.20053241  0.25000000  1
  Cl  Cl9  1  0.33382631  0.29946759  0.75000000  1
  Cl  Cl10  1  0.66617369  0.70053241  0.25000000  1
  Cl  Cl11  1  0.16617369  0.79946759  0.75000000  1
  Cl  Cl12  1  0.73233422  0.90439543  0.58011359  1
  Cl  Cl13  1  0.23233422  0.59560457  0.41988641  1
  Cl  Cl14  1  0.76766578  0.40439543  0.91988641  1
  Cl  Cl15  1  0.26766578  0.09560457  0.08011359  1
