# generated using pymatgen
data_TmAg(PSe3)2
_symmetry_space_group_name_H-M   'P 1'
_cell_length_a   6.60379622
_cell_length_b   6.60379622
_cell_length_c   13.49331494
_cell_angle_alpha   90.00000000
_cell_angle_beta   90.00000000
_cell_angle_gamma   119.99999738
_symmetry_Int_Tables_number   1
_chemical_formula_structural   TmAg(PSe3)2
_chemical_formula_sum   'Tm2 Ag2 P4 Se12'
_cell_volume   509.60845749
_cell_formula_units_Z   2
loop_
 _symmetry_equiv_pos_site_id
 _symmetry_equiv_pos_as_xyz
  1  'x, y, z'
loop_
 _atom_site_type_symbol
 _atom_site_label
 _atom_site_symmetry_multiplicity
 _atom_site_fract_x
 _atom_site_fract_y
 _atom_site_fract_z
 _atom_site_occupancy
  Tm  Tm0  1  0.00000000  0.00000000  0.75000000  1
  Tm  Tm1  1  0.00000000  0.00000000  0.25000000  1
  Ag  Ag2  1  0.33333300  0.66666700  0.75000000  1
  Ag  Ag3  1  0.66666700  0.33333300  0.25000000  1
  P  P4  1  0.66666700  0.33333300  0.66530158  1
  P  P5  1  0.66666700  0.33333300  0.83469842  1
  P  P6  1  0.33333300  0.66666700  0.33469842  1
  P  P7  1  0.33333300  0.66666700  0.16530158  1
  Se  Se8  1  0.98071782  0.32038730  0.61613027  1
  Se  Se9  1  0.98071782  0.66033152  0.88386973  1
  Se  Se10  1  0.67961270  0.01928218  0.88386973  1
  Se  Se11  1  0.33966848  0.32038730  0.88386973  1
  Se  Se12  1  0.32038730  0.33966848  0.38386973  1
  Se  Se13  1  0.32038730  0.98071782  0.11613027  1
  Se  Se14  1  0.01928218  0.67961270  0.38386973  1
  Se  Se15  1  0.01928218  0.33966848  0.11613027  1
  Se  Se16  1  0.33966848  0.01928218  0.61613027  1
  Se  Se17  1  0.66033152  0.67961270  0.11613027  1
  Se  Se18  1  0.66033152  0.98071782  0.38386973  1
  Se  Se19  1  0.67961270  0.66033152  0.61613027  1
