# generated using pymatgen
data_NbF4
_symmetry_space_group_name_H-M   'P 1'
_cell_length_a   4.12982107
_cell_length_b   4.12982142
_cell_length_c   4.92924794
_cell_angle_alpha   114.76578515
_cell_angle_beta   114.76578350
_cell_angle_gamma   89.99999528
_symmetry_Int_Tables_number   1
_chemical_formula_structural   NbF4
_chemical_formula_sum   'Nb1 F4'
_cell_volume   67.72908785
_cell_formula_units_Z   1
loop_
 _symmetry_equiv_pos_site_id
 _symmetry_equiv_pos_as_xyz
  1  'x, y, z'
loop_
 _atom_site_type_symbol
 _atom_site_label
 _atom_site_symmetry_multiplicity
 _atom_site_fract_x
 _atom_site_fract_y
 _atom_site_fract_z
 _atom_site_occupancy
  Nb  Nb0  1  0.00000000  0.00000000  0.00000000  1
  F  F1  1  0.75804524  0.75804524  0.51609049  1
  F  F2  1  -0.00000000  0.50000000  0.00000000  1
  F  F3  1  0.50000000  0.00000000  0.00000000  1
  F  F4  1  0.24195476  0.24195476  0.48390951  1
