# generated using pymatgen
data_P4Se5
_symmetry_space_group_name_H-M   'P 1'
_cell_length_a   6.67650440
_cell_length_b   11.21067535
_cell_length_c   12.92741047
_cell_angle_alpha   90.00000000
_cell_angle_beta   90.00000000
_cell_angle_gamma   90.00000000
_symmetry_Int_Tables_number   1
_chemical_formula_structural   P4Se5
_chemical_formula_sum   'P16 Se20'
_cell_volume   967.59241296
_cell_formula_units_Z   4
loop_
 _symmetry_equiv_pos_site_id
 _symmetry_equiv_pos_as_xyz
  1  'x, y, z'
loop_
 _atom_site_type_symbol
 _atom_site_label
 _atom_site_symmetry_multiplicity
 _atom_site_fract_x
 _atom_site_fract_y
 _atom_site_fract_z
 _atom_site_occupancy
  P  P0  1  0.49271807  0.46358375  0.44190821  1
  P  P1  1  0.96245618  0.98552832  0.32632478  1
  P  P2  1  0.03754382  0.48552832  0.67367522  1
  P  P3  1  0.53754382  0.98552832  0.82632478  1
  P  P4  1  0.90117924  0.15241463  0.09830307  1
  P  P5  1  0.09882076  0.65241463  0.90169693  1
  P  P6  1  0.59882076  0.15241463  0.59830307  1
  P  P7  1  0.40117924  0.65241463  0.40169693  1
  P  P8  1  0.46245618  0.48552832  0.17367522  1
  P  P9  1  0.68909035  0.51742976  0.89161114  1
  P  P10  1  0.18909035  0.01742976  0.60838886  1
  P  P11  1  0.81090965  0.51742976  0.39161114  1
  P  P12  1  0.99271807  0.96358375  0.05809179  1
  P  P13  1  0.00728193  0.46358375  0.94190821  1
  P  P14  1  0.50728193  0.96358375  0.55809179  1
  P  P15  1  0.31090965  0.01742976  0.10838886  1
  Se  Se16  1  0.17359848  0.66474688  0.72828598  1
  Se  Se17  1  0.82310569  0.24475945  0.50879423  1
  Se  Se18  1  0.17689431  0.74475945  0.49120577  1
  Se  Se19  1  0.22432976  0.21528929  0.06699571  1
  Se  Se20  1  0.77567024  0.71528929  0.93300429  1
  Se  Se21  1  0.27567024  0.21528929  0.56699571  1
  Se  Se22  1  0.72432976  0.71528929  0.43300429  1
  Se  Se23  1  0.82640152  0.16474688  0.27171402  1
  Se  Se24  1  0.67359848  0.16474688  0.77171402  1
  Se  Se25  1  0.63948828  0.86078050  0.69161170  1
  Se  Se26  1  0.29866400  -0.00073260  0.28636342  1
  Se  Se27  1  0.70133600  0.49926740  0.71363658  1
  Se  Se28  1  0.20133600  -0.00073260  0.78636342  1
  Se  Se29  1  0.79866400  0.49926740  0.21363658  1
  Se  Se30  1  0.86051172  0.86078050  0.19161170  1
  Se  Se31  1  0.13948828  0.36078050  0.80838830  1
  Se  Se32  1  0.32310569  0.74475945  0.99120577  1
  Se  Se33  1  0.36051172  0.36078050  0.30838830  1
  Se  Se34  1  0.32640152  0.66474688  0.22828598  1
  Se  Se35  1  0.67689431  0.24475945  0.00879423  1
