# generated using pymatgen
data_HoSI
_symmetry_space_group_name_H-M   'P 1'
_cell_length_a   4.14834540
_cell_length_b   5.32749250
_cell_length_c   9.11667895
_cell_angle_alpha   90.00000000
_cell_angle_beta   90.00000000
_cell_angle_gamma   90.00000000
_symmetry_Int_Tables_number   1
_chemical_formula_structural   HoSI
_chemical_formula_sum   'Ho2 S2 I2'
_cell_volume   201.48114849
_cell_formula_units_Z   2
loop_
 _symmetry_equiv_pos_site_id
 _symmetry_equiv_pos_as_xyz
  1  'x, y, z'
loop_
 _atom_site_type_symbol
 _atom_site_label
 _atom_site_symmetry_multiplicity
 _atom_site_fract_x
 _atom_site_fract_y
 _atom_site_fract_z
 _atom_site_occupancy
  Ho  Ho0  1  0.75000000  0.75000000  0.87841879  1
  Ho  Ho1  1  0.25000000  0.25000000  0.12158121  1
  S  S2  1  0.75000000  0.25000000  0.92682908  1
  S  S3  1  0.25000000  0.75000000  0.07317092  1
  I  I4  1  0.75000000  0.25000000  0.36241009  1
  I  I5  1  0.25000000  0.75000000  0.63758991  1
