# generated using pymatgen
data_Bi2Pt
_symmetry_space_group_name_H-M   'P 1'
_cell_length_a   7.08930387
_cell_length_b   7.08930423
_cell_length_c   5.71673244
_cell_angle_alpha   90.00000000
_cell_angle_beta   90.00000000
_cell_angle_gamma   120.00000155
_symmetry_Int_Tables_number   1
_chemical_formula_structural   Bi2Pt
_chemical_formula_sum   'Bi6 Pt3'
_cell_volume   248.82023605
_cell_formula_units_Z   3
loop_
 _symmetry_equiv_pos_site_id
 _symmetry_equiv_pos_as_xyz
  1  'x, y, z'
loop_
 _atom_site_type_symbol
 _atom_site_label
 _atom_site_symmetry_multiplicity
 _atom_site_fract_x
 _atom_site_fract_y
 _atom_site_fract_z
 _atom_site_occupancy
  Bi  Bi0  1  0.33331826  0.99996923  0.26480255  1
  Bi  Bi1  1  0.99996923  0.66665097  0.73519745  1
  Bi  Bi2  1  0.66668174  0.00003077  0.73519745  1
  Bi  Bi3  1  0.66665097  0.66668174  0.26480255  1
  Bi  Bi4  1  0.33334903  0.33331826  0.73519745  1
  Bi  Bi5  1  0.00003077  0.33334903  0.26480255  1
  Pt  Pt6  1  0.66666700  0.33333300  0.00005317  1
  Pt  Pt7  1  0.00000000  0.00000000  0.00000000  1
  Pt  Pt8  1  0.33333300  0.66666700  -0.00005317  1
