# generated using pymatgen
data_NbIO2
_symmetry_space_group_name_H-M   'P 1'
_cell_length_a   3.81950020
_cell_length_b   3.96227933
_cell_length_c   21.04170564
_cell_angle_alpha   90.00000000
_cell_angle_beta   90.00000000
_cell_angle_gamma   90.00000000
_symmetry_Int_Tables_number   1
_chemical_formula_structural   NbIO2
_chemical_formula_sum   'Nb4 I4 O8'
_cell_volume   318.44363076
_cell_formula_units_Z   4
loop_
 _symmetry_equiv_pos_site_id
 _symmetry_equiv_pos_as_xyz
  1  'x, y, z'
loop_
 _atom_site_type_symbol
 _atom_site_label
 _atom_site_symmetry_multiplicity
 _atom_site_fract_x
 _atom_site_fract_y
 _atom_site_fract_z
 _atom_site_occupancy
  Nb  Nb0  1  0.25000000  0.54256574  0.93287089  1
  Nb  Nb1  1  0.75000000  0.04256574  0.56712911  1
  Nb  Nb2  1  0.75000000  0.45743426  0.06712911  1
  Nb  Nb3  1  0.25000000  0.95743426  0.43287089  1
  I  I4  1  0.25000000  0.99686887  0.67572321  1
  I  I5  1  0.75000000  0.00313113  0.32427679  1
  I  I6  1  0.25000000  0.50313113  0.17572321  1
  I  I7  1  0.75000000  0.49686887  0.82427679  1
  O  O8  1  0.25000000  0.49484834  0.42584436  1
  O  O9  1  0.75000000  0.50515166  0.57415564  1
  O  O10  1  0.25000000  0.00515166  0.92584436  1
  O  O11  1  0.75000000  0.00565804  0.46768078  1
  O  O12  1  0.25000000  0.99434196  0.53231922  1
  O  O13  1  0.25000000  0.50565804  0.03231922  1
  O  O14  1  0.75000000  0.99484834  0.07415564  1
  O  O15  1  0.75000000  0.49434196  0.96768078  1
