# generated using pymatgen
data_InSe
_symmetry_space_group_name_H-M   'P 1'
_cell_length_a   11.90375009
_cell_length_b   4.16944868
_cell_length_c   4.71320508
_cell_angle_alpha   90.00000000
_cell_angle_beta   110.34673032
_cell_angle_gamma   90.00000000
_symmetry_Int_Tables_number   1
_chemical_formula_structural   InSe
_chemical_formula_sum   'In4 Se4'
_cell_volume   219.33048154
_cell_formula_units_Z   4
loop_
 _symmetry_equiv_pos_site_id
 _symmetry_equiv_pos_as_xyz
  1  'x, y, z'
loop_
 _atom_site_type_symbol
 _atom_site_label
 _atom_site_symmetry_multiplicity
 _atom_site_fract_x
 _atom_site_fract_y
 _atom_site_fract_z
 _atom_site_occupancy
  In  In0  1  0.88621794  0.00000000  0.03179161  1
  In  In1  1  0.11378206  0.00000000  0.96820839  1
  In  In2  1  0.38621794  0.50000000  0.03179161  1
  In  In3  1  0.61378206  0.50000000  0.96820839  1
  Se  Se4  1  0.15620518  0.50000000  0.64573477  1
  Se  Se5  1  0.84379482  0.50000000  0.35426523  1
  Se  Se6  1  0.65620518  0.00000000  0.64573477  1
  Se  Se7  1  0.34379482  0.00000000  0.35426523  1
