# generated using pymatgen
data_SbSBr
_symmetry_space_group_name_H-M   'P 1'
_cell_length_a   3.98250193
_cell_length_b   8.32693645
_cell_length_c   9.85039316
_cell_angle_alpha   90.00000000
_cell_angle_beta   90.00000000
_cell_angle_gamma   90.00000000
_symmetry_Int_Tables_number   1
_chemical_formula_structural   SbSBr
_chemical_formula_sum   'Sb4 S4 Br4'
_cell_volume   326.65913669
_cell_formula_units_Z   4
loop_
 _symmetry_equiv_pos_site_id
 _symmetry_equiv_pos_as_xyz
  1  'x, y, z'
loop_
 _atom_site_type_symbol
 _atom_site_label
 _atom_site_symmetry_multiplicity
 _atom_site_fract_x
 _atom_site_fract_y
 _atom_site_fract_z
 _atom_site_occupancy
  Sb  Sb0  1  0.26210763  0.62294114  0.36698778  1
  Sb  Sb1  1  0.76210763  0.37705886  0.63301222  1
  Sb  Sb2  1  0.76210763  0.87705886  0.86698778  1
  Sb  Sb3  1  0.26210763  0.12294114  0.13301222  1
  S  S4  1  0.76204995  0.66316619  0.54755079  1
  S  S5  1  0.76204995  0.16316619  0.95244921  1
  S  S6  1  0.26204995  0.83683381  0.04755079  1
  S  S7  1  0.26204995  0.33683381  0.45244921  1
  Br  Br8  1  0.76204242  0.48659843  0.17548286  1
  Br  Br9  1  0.76204242  0.98659843  0.32451714  1
  Br  Br10  1  0.26204242  0.01340157  0.67548286  1
  Br  Br11  1  0.26204242  0.51340157  0.82451714  1
