# generated using pymatgen
data_ZrTe5
_symmetry_space_group_name_H-M   'P 1'
_cell_length_a   4.03667876
_cell_length_b   7.66102343
_cell_length_c   13.85587504
_cell_angle_alpha   90.00000000
_cell_angle_beta   90.00000000
_cell_angle_gamma   105.27520669
_symmetry_Int_Tables_number   1
_chemical_formula_structural   ZrTe5
_chemical_formula_sum   'Zr2 Te10'
_cell_volume   413.35613836
_cell_formula_units_Z   2
loop_
 _symmetry_equiv_pos_site_id
 _symmetry_equiv_pos_as_xyz
  1  'x, y, z'
loop_
 _atom_site_type_symbol
 _atom_site_label
 _atom_site_symmetry_multiplicity
 _atom_site_fract_x
 _atom_site_fract_y
 _atom_site_fract_z
 _atom_site_occupancy
  Zr  Zr0  1  0.31548275  0.63096551  0.75000000  1
  Zr  Zr1  1  0.68451725  0.36903449  0.25000000  1
  Te  Te2  1  0.66419602  0.32839204  0.75000000  1
  Te  Te3  1  0.33580398  0.67160796  0.25000000  1
  Te  Te4  1  0.92977783  0.85955467  0.85079341  1
  Te  Te5  1  0.07022217  0.14044533  0.14920659  1
  Te  Te6  1  0.07022217  0.14044533  0.35079341  1
  Te  Te7  1  0.92977783  0.85955467  0.64920659  1
  Te  Te8  1  0.20924480  0.41848959  0.56519863  1
  Te  Te9  1  0.79075520  0.58151041  0.43480137  1
  Te  Te10  1  0.79075520  0.58151041  0.06519863  1
  Te  Te11  1  0.20924480  0.41848959  0.93480137  1
