# generated using pymatgen
data_TiO2
_symmetry_space_group_name_H-M   'P 1'
_cell_length_a   4.79863905
_cell_length_b   4.79863897
_cell_length_c   4.79863942
_cell_angle_alpha   36.43057716
_cell_angle_beta   36.43058215
_cell_angle_gamma   36.43057777
_symmetry_Int_Tables_number   1
_chemical_formula_structural   TiO2
_chemical_formula_sum   'Ti1 O2'
_cell_volume   34.88027237
_cell_formula_units_Z   1
loop_
 _symmetry_equiv_pos_site_id
 _symmetry_equiv_pos_as_xyz
  1  'x, y, z'
loop_
 _atom_site_type_symbol
 _atom_site_label
 _atom_site_symmetry_multiplicity
 _atom_site_fract_x
 _atom_site_fract_y
 _atom_site_fract_z
 _atom_site_occupancy
  Ti  Ti0  1  0.00000000  0.00000000  0.00000000  1
  O  O1  1  0.26173907  0.26173707  0.26173807  1
  O  O2  1  0.73826393  0.73826093  0.73826193  1
