# generated using pymatgen
data_SiH4
_symmetry_space_group_name_H-M   'P 1'
_cell_length_a   7.39378107
_cell_length_b   4.74037694
_cell_length_c   7.49299332
_cell_angle_alpha   90.00000000
_cell_angle_beta   104.59625348
_cell_angle_gamma   90.00000000
_symmetry_Int_Tables_number   1
_chemical_formula_structural   SiH4
_chemical_formula_sum   'Si4 H16'
_cell_volume   254.14821429
_cell_formula_units_Z   4
loop_
 _symmetry_equiv_pos_site_id
 _symmetry_equiv_pos_as_xyz
  1  'x, y, z'
loop_
 _atom_site_type_symbol
 _atom_site_label
 _atom_site_symmetry_multiplicity
 _atom_site_fract_x
 _atom_site_fract_y
 _atom_site_fract_z
 _atom_site_occupancy
  Si  Si0  1  0.24850816  0.06332284  0.84610018  1
  Si  Si1  1  0.75149184  0.56332284  0.65389982  1
  Si  Si2  1  0.75149184  0.93667716  0.15389982  1
  Si  Si3  1  0.24850816  0.43667716  0.34610018  1
  H  H4  1  0.58923052  0.08998575  0.19388420  1
  H  H5  1  0.41076948  0.58998575  0.30611580  1
  H  H6  1  0.30060142  0.36546848  0.88837030  1
  H  H7  1  0.69939858  0.86546848  0.61162970  1
  H  H8  1  0.69939858  0.63453152  0.11162970  1
  H  H9  1  0.30060142  0.13453152  0.38837030  1
  H  H10  1  0.08528450  0.04620045  0.68131667  1
  H  H11  1  0.91471550  0.95379955  0.31868333  1
  H  H12  1  0.58923052  0.41001425  0.69388420  1
  H  H13  1  0.08528450  0.45379955  0.18131667  1
  H  H14  1  0.19813559  0.56898715  0.50816182  1
  H  H15  1  0.80186441  0.06898715  0.99183818  1
  H  H16  1  0.80186441  0.43101285  0.49183818  1
  H  H17  1  0.19813559  0.93101285  0.00816182  1
  H  H18  1  0.91471550  0.54620045  0.81868333  1
  H  H19  1  0.41076948  0.91001425  0.80611580  1
