# generated using pymatgen
data_YClO
_symmetry_space_group_name_H-M   'P 1'
_cell_length_a   9.56295759
_cell_length_b   9.56295752
_cell_length_c   9.56295712
_cell_angle_alpha   22.92460679
_cell_angle_beta   22.92460660
_cell_angle_gamma   22.92460828
_symmetry_Int_Tables_number   1
_chemical_formula_structural   YClO
_chemical_formula_sum   'Y2 Cl2 O2'
_cell_volume   116.44437271
_cell_formula_units_Z   2
loop_
 _symmetry_equiv_pos_site_id
 _symmetry_equiv_pos_as_xyz
  1  'x, y, z'
loop_
 _atom_site_type_symbol
 _atom_site_label
 _atom_site_symmetry_multiplicity
 _atom_site_fract_x
 _atom_site_fract_y
 _atom_site_fract_z
 _atom_site_occupancy
  Y  Y0  1  0.71808843  0.71808843  0.71808843  1
  Y  Y1  1  0.28191191  0.28191191  0.28191191  1
  Cl  Cl2  1  0.88656858  0.88656858  0.88656858  1
  Cl  Cl3  1  0.11343176  0.11343176  0.11343176  1
  O  O4  1  0.36382936  0.36382936  0.36382936  1
  O  O5  1  0.63617097  0.63617097  0.63617097  1
