# generated using pymatgen
data_TiCl3
_symmetry_space_group_name_H-M   'P 1'
_cell_length_a   5.99732843
_cell_length_b   5.99732911
_cell_length_c   5.85146554
_cell_angle_alpha   90.00000000
_cell_angle_beta   90.00000000
_cell_angle_gamma   119.99999625
_symmetry_Int_Tables_number   1
_chemical_formula_structural   TiCl3
_chemical_formula_sum   'Ti2 Cl6'
_cell_volume   182.26824591
_cell_formula_units_Z   2
loop_
 _symmetry_equiv_pos_site_id
 _symmetry_equiv_pos_as_xyz
  1  'x, y, z'
loop_
 _atom_site_type_symbol
 _atom_site_label
 _atom_site_symmetry_multiplicity
 _atom_site_fract_x
 _atom_site_fract_y
 _atom_site_fract_z
 _atom_site_occupancy
  Ti  Ti0  1  0.66666700  0.33333300  0.00000000  1
  Ti  Ti1  1  0.33333300  0.66666700  0.00000000  1
  Cl  Cl2  1  0.65878309  0.65878309  0.76042007  1
  Cl  Cl3  1  0.34121691  0.34121691  0.23957993  1
  Cl  Cl4  1  1.00000000  0.34121691  0.76042007  1
  Cl  Cl5  1  0.34121691  0.00000000  0.76042007  1
  Cl  Cl6  1  0.65878309  0.00000000  0.23957993  1
  Cl  Cl7  1  0.00000000  0.65878309  0.23957993  1
