# generated using pymatgen
data_UTe3
_symmetry_space_group_name_H-M   'P 1'
_cell_length_a   4.34114545
_cell_length_b   4.50015328
_cell_length_c   12.72947909
_cell_angle_alpha   90.00000000
_cell_angle_beta   99.81778207
_cell_angle_gamma   90.00000000
_symmetry_Int_Tables_number   1
_chemical_formula_structural   UTe3
_chemical_formula_sum   'U2 Te6'
_cell_volume   245.03888702
_cell_formula_units_Z   2
loop_
 _symmetry_equiv_pos_site_id
 _symmetry_equiv_pos_as_xyz
  1  'x, y, z'
loop_
 _atom_site_type_symbol
 _atom_site_label
 _atom_site_symmetry_multiplicity
 _atom_site_fract_x
 _atom_site_fract_y
 _atom_site_fract_z
 _atom_site_occupancy
  U  U0  1  0.83318716  0.75000000  0.66637532  1
  U  U1  1  0.16681284  0.25000000  0.33362468  1
  Te  Te2  1  0.70442050  0.75000000  0.40884100  1
  Te  Te3  1  0.29557950  0.25000000  0.59115900  1
  Te  Te4  1  0.92610733  0.25000000  0.85221466  1
  Te  Te5  1  0.07389267  0.75000000  0.14778534  1
  Te  Te6  1  0.57353193  0.25000000  0.14706387  1
  Te  Te7  1  0.42646807  0.75000000  0.85293613  1
