# generated using pymatgen
data_VBr2
_symmetry_space_group_name_H-M   'P 1'
_cell_length_a   3.81667832
_cell_length_b   3.81671356
_cell_length_c   6.06516985
_cell_angle_alpha   89.99710883
_cell_angle_beta   90.00000000
_cell_angle_gamma   119.99970301
_symmetry_Int_Tables_number   1
_chemical_formula_structural   VBr2
_chemical_formula_sum   'V1 Br2'
_cell_volume   76.51560638
_cell_formula_units_Z   1
loop_
 _symmetry_equiv_pos_site_id
 _symmetry_equiv_pos_as_xyz
  1  'x, y, z'
loop_
 _atom_site_type_symbol
 _atom_site_label
 _atom_site_symmetry_multiplicity
 _atom_site_fract_x
 _atom_site_fract_y
 _atom_site_fract_z
 _atom_site_occupancy
  V  V0  1  0.99996600  0.00000000  0.00000000  1
  Br  Br1  1  0.33328372  0.66663743  0.23951466  1
  Br  Br2  1  0.66664728  0.33336157  0.76048634  1
