# generated using pymatgen
data_TiNCl
_symmetry_space_group_name_H-M   'P 1'
_cell_length_a   3.27412477
_cell_length_b   3.95371480
_cell_length_c   7.80835425
_cell_angle_alpha   90.00000000
_cell_angle_beta   90.00000000
_cell_angle_gamma   90.00000000
_symmetry_Int_Tables_number   1
_chemical_formula_structural   TiNCl
_chemical_formula_sum   'Ti2 N2 Cl2'
_cell_volume   101.07879883
_cell_formula_units_Z   2
loop_
 _symmetry_equiv_pos_site_id
 _symmetry_equiv_pos_as_xyz
  1  'x, y, z'
loop_
 _atom_site_type_symbol
 _atom_site_label
 _atom_site_symmetry_multiplicity
 _atom_site_fract_x
 _atom_site_fract_y
 _atom_site_fract_z
 _atom_site_occupancy
  Ti  Ti0  1  0.50000000  0.00000000  0.09946039  1
  Ti  Ti1  1  0.00000000  0.50000000  0.90053961  1
  N  N2  1  0.00000000  0.00000000  0.95090251  1
  N  N3  1  0.50000000  0.50000000  0.04909749  1
  Cl  Cl4  1  0.50000000  0.50000000  0.66567008  1
  Cl  Cl5  1  0.00000000  0.00000000  0.33432992  1
