# generated using pymatgen
data_MoS2
_symmetry_space_group_name_H-M   'P 1'
_cell_length_a   5.55306062
_cell_length_b   3.20594350
_cell_length_c   6.39921529
_cell_angle_alpha   90.00000000
_cell_angle_beta   106.82172614
_cell_angle_gamma   90.00000000
_symmetry_Int_Tables_number   1
_chemical_formula_structural   MoS2
_chemical_formula_sum   'Mo2 S4'
_cell_volume   109.04911612
_cell_formula_units_Z   2
loop_
 _symmetry_equiv_pos_site_id
 _symmetry_equiv_pos_as_xyz
  1  'x, y, z'
loop_
 _atom_site_type_symbol
 _atom_site_label
 _atom_site_symmetry_multiplicity
 _atom_site_fract_x
 _atom_site_fract_y
 _atom_site_fract_z
 _atom_site_occupancy
  Mo  Mo0  1  0.50000000  0.50000000  -0.00000000  1
  Mo  Mo1  1  0.00000000  0.00000000  0.00000000  1
  S  S2  1  0.75281626  0.00000000  0.25830872  1
  S  S3  1  0.74718374  0.50000000  0.74169128  1
  S  S4  1  0.25281626  0.50000000  0.25830872  1
  S  S5  1  0.24718374  0.00000000  0.74169128  1
