# generated using pymatgen
data_Te(HO2)2
_symmetry_space_group_name_H-M   'P 1'
_cell_length_a   5.80409516
_cell_length_b   4.92249742
_cell_length_c   5.27679714
_cell_angle_alpha   90.00000000
_cell_angle_beta   113.21380846
_cell_angle_gamma   90.00000000
_symmetry_Int_Tables_number   1
_chemical_formula_structural   Te(HO2)2
_chemical_formula_sum   'Te2 H4 O8'
_cell_volume   138.55589540
_cell_formula_units_Z   2
loop_
 _symmetry_equiv_pos_site_id
 _symmetry_equiv_pos_as_xyz
  1  'x, y, z'
loop_
 _atom_site_type_symbol
 _atom_site_label
 _atom_site_symmetry_multiplicity
 _atom_site_fract_x
 _atom_site_fract_y
 _atom_site_fract_z
 _atom_site_occupancy
  Te  Te0  1  0.99850503  0.50056576  0.52336146  1
  Te  Te1  1  0.99850503  0.99943424  0.02336146  1
  H  H2  1  0.38898777  0.29773483  0.51595338  1
  H  H3  1  0.60489348  0.76189975  0.74210329  1
  H  H4  1  0.60489348  0.73810025  0.24210329  1
  H  H5  1  0.38898777  0.20226517  0.01595338  1
  O  O6  1  0.33869625  0.35789231  0.66740392  1
  O  O7  1  0.66181954  0.85701391  0.92303197  1
  O  O8  1  0.66181954  0.64298609  0.42303197  1
  O  O9  1  0.33869625  0.14210769  0.16740392  1
  O  O10  1  0.88046765  0.18833848  0.67083847  1
  O  O11  1  0.11470428  0.68336684  0.87956752  1
  O  O12  1  0.11470428  0.81663316  0.37956752  1
  O  O13  1  0.88046765  0.31166152  0.17083847  1
