# generated using pymatgen
data_SnP7Au3
_symmetry_space_group_name_H-M   'P 1'
_cell_length_a   6.38832491
_cell_length_b   11.14364381
_cell_length_c   6.52653159
_cell_angle_alpha   90.00000000
_cell_angle_beta   108.66564302
_cell_angle_gamma   90.00000000
_symmetry_Int_Tables_number   1
_chemical_formula_structural   SnP7Au3
_chemical_formula_sum   'Sn2 P14 Au6'
_cell_volume   440.18083016
_cell_formula_units_Z   2
loop_
 _symmetry_equiv_pos_site_id
 _symmetry_equiv_pos_as_xyz
  1  'x, y, z'
loop_
 _atom_site_type_symbol
 _atom_site_label
 _atom_site_symmetry_multiplicity
 _atom_site_fract_x
 _atom_site_fract_y
 _atom_site_fract_z
 _atom_site_occupancy
  Sn  Sn0  1  0.68887453  0.25000000  0.96113275  1
  Sn  Sn1  1  0.31112547  0.75000000  0.03886725  1
  P  P2  1  0.71952349  0.59252937  0.80445171  1
  P  P3  1  0.28047651  0.09252937  0.19554829  1
  P  P4  1  0.83467550  0.57838992  0.16616735  1
  P  P5  1  0.16532450  0.07838992  0.83383265  1
  P  P6  1  0.16532450  0.42161008  0.83383265  1
  P  P7  1  0.71952349  0.90747063  0.80445171  1
  P  P8  1  0.83467550  0.92161008  0.16616735  1
  P  P9  1  0.20118020  0.91149630  0.29033255  1
  P  P10  1  0.79881980  0.41149630  0.70966745  1
  P  P11  1  0.79881980  0.08850370  0.70966745  1
  P  P12  1  0.20118020  0.58850370  0.29033255  1
  P  P13  1  0.73650535  0.75000000  0.28628245  1
  P  P14  1  0.26349465  0.25000000  0.71371755  1
  P  P15  1  0.28047651  0.40747063  0.19554829  1
  Au  Au16  1  0.06919421  0.25000000  0.31738775  1
  Au  Au17  1  0.31558618  0.59921126  0.68621455  1
  Au  Au18  1  0.68441382  0.09921126  0.31378545  1
  Au  Au19  1  0.68441382  0.40078874  0.31378545  1
  Au  Au20  1  0.31558618  0.90078874  0.68621455  1
  Au  Au21  1  0.93080579  0.75000000  0.68261225  1
