# generated using pymatgen
data_SnS
_symmetry_space_group_name_H-M   'P 1'
_cell_length_a   3.77147116
_cell_length_b   5.78809630
_cell_length_c   5.90458992
_cell_angle_alpha   90.00000000
_cell_angle_beta   108.62468505
_cell_angle_gamma   90.00000000
_symmetry_Int_Tables_number   1
_chemical_formula_structural   SnS
_chemical_formula_sum   'Sn2 S2'
_cell_volume   122.14494422
_cell_formula_units_Z   2
loop_
 _symmetry_equiv_pos_site_id
 _symmetry_equiv_pos_as_xyz
  1  'x, y, z'
loop_
 _atom_site_type_symbol
 _atom_site_label
 _atom_site_symmetry_multiplicity
 _atom_site_fract_x
 _atom_site_fract_y
 _atom_site_fract_z
 _atom_site_occupancy
  Sn  Sn0  1  0.85123225  0.25000000  0.70246450  1
  Sn  Sn1  1  0.14876775  0.75000000  0.29753550  1
  S  S2  1  0.18916133  0.25000000  0.37832267  1
  S  S3  1  0.81083867  0.75000000  0.62167733  1
