# generated using pymatgen
data_Fe(PS3)2
_symmetry_space_group_name_H-M   'P 1'
_cell_length_a   5.77326938
_cell_length_b   5.77326920
_cell_length_c   6.19062348
_cell_angle_alpha   89.95679624
_cell_angle_beta   89.95679693
_cell_angle_gamma   120.00436720
_symmetry_Int_Tables_number   1
_chemical_formula_structural   Fe(PS3)2
_chemical_formula_sum   'Fe1 P2 S6'
_cell_volume   178.68539021
_cell_formula_units_Z   1
loop_
 _symmetry_equiv_pos_site_id
 _symmetry_equiv_pos_as_xyz
  1  'x, y, z'
loop_
 _atom_site_type_symbol
 _atom_site_label
 _atom_site_symmetry_multiplicity
 _atom_site_fract_x
 _atom_site_fract_y
 _atom_site_fract_z
 _atom_site_occupancy
  Fe  Fe0  1  0.33333234  0.66666766  0.50000000  1
  P  P1  1  -0.00029111  -0.00031504  0.67462381  1
  P  P2  1  0.00031504  0.00029111  0.32537619  1
  S  S3  1  0.02643215  0.66611974  0.74394108  1
  S  S4  1  0.02722514  0.36073408  0.25616016  1
  S  S5  1  0.33309181  0.35995255  0.74388651  1
  S  S6  1  0.33388026  0.97356785  0.25605892  1
  S  S7  1  0.64004745  0.66690819  0.25611349  1
  S  S8  1  0.63926592  0.97277486  0.74383984  1
