# generated using pymatgen
data_Ta3SeI7
_symmetry_space_group_name_H-M   'P 1'
_cell_length_a   7.61401146
_cell_length_b   7.61401146
_cell_length_c   13.74432631
_cell_angle_alpha   90.00000000
_cell_angle_beta   90.00000000
_cell_angle_gamma   120.00000369
_symmetry_Int_Tables_number   1
_chemical_formula_structural   Ta3SeI7
_chemical_formula_sum   'Ta6 Se2 I14'
_cell_volume   690.05089806
_cell_formula_units_Z   2
loop_
 _symmetry_equiv_pos_site_id
 _symmetry_equiv_pos_as_xyz
  1  'x, y, z'
loop_
 _atom_site_type_symbol
 _atom_site_label
 _atom_site_symmetry_multiplicity
 _atom_site_fract_x
 _atom_site_fract_y
 _atom_site_fract_z
 _atom_site_occupancy
  Ta  Ta0  1  0.12953050  0.87046950  0.75026004  1
  Ta  Ta1  1  0.25906201  0.12953050  0.25026004  1
  Ta  Ta2  1  0.87046950  0.74093799  0.25026004  1
  Ta  Ta3  1  0.12953050  0.25906201  0.75026004  1
  Ta  Ta4  1  0.74093799  0.87046950  0.75026004  1
  Ta  Ta5  1  0.87046950  0.12953050  0.25026004  1
  Se  Se6  1  0.00000000  0.00000000  0.88851535  1
  Se  Se7  1  0.00000000  0.00000000  0.38851535  1
  I  I8  1  0.83092545  0.66185089  0.61430954  1
  I  I9  1  0.16907455  0.33814911  0.11430954  1
  I  I10  1  0.66185089  0.83092545  0.11430954  1
  I  I11  1  0.83092545  0.16907455  0.61430954  1
  I  I12  1  0.66666700  0.33333300  0.14411205  1
  I  I13  1  0.33333300  0.66666700  0.64411205  1
  I  I14  1  0.99468749  0.49734375  0.86338862  1
  I  I15  1  0.00531251  0.50265625  0.36338862  1
  I  I16  1  0.49734375  0.50265625  0.36338862  1
  I  I17  1  0.33814911  0.16907455  0.61430954  1
  I  I18  1  0.50265625  0.00531251  0.86338862  1
  I  I19  1  0.49734375  0.99468749  0.36338862  1
  I  I20  1  0.50265625  0.49734375  0.86338862  1
  I  I21  1  0.16907455  0.83092545  0.11430954  1
