# generated using pymatgen
data_TaS2
_symmetry_space_group_name_H-M   'P 1'
_cell_length_a   3.35022835
_cell_length_b   3.33797668
_cell_length_c   6.45482060
_cell_angle_alpha   82.37824635
_cell_angle_beta   74.72625035
_cell_angle_gamma   59.87842977
_symmetry_Int_Tables_number   1
_chemical_formula_structural   TaS2
_chemical_formula_sum   'Ta1 S2'
_cell_volume   60.23121201
_cell_formula_units_Z   1
loop_
 _symmetry_equiv_pos_site_id
 _symmetry_equiv_pos_as_xyz
  1  'x, y, z'
loop_
 _atom_site_type_symbol
 _atom_site_label
 _atom_site_symmetry_multiplicity
 _atom_site_fract_x
 _atom_site_fract_y
 _atom_site_fract_z
 _atom_site_occupancy
  Ta  Ta0  1  0.07589254  0.84821714  -0.00000220  1
  S  S1  1  0.86939855  0.51616684  0.74854766  1
  S  S2  1  0.61470792  0.51561502  0.25145454  1
