# generated using pymatgen
data_Mg(AlSe2)2
_symmetry_space_group_name_H-M   'P 1'
_cell_length_a   13.11856119
_cell_length_b   13.11856116
_cell_length_c   13.11856088
_cell_angle_alpha   17.12207940
_cell_angle_beta   17.12208104
_cell_angle_gamma   17.12207770
_symmetry_Int_Tables_number   1
_chemical_formula_structural   Mg(AlSe2)2
_chemical_formula_sum   'Mg1 Al2 Se4'
_cell_volume   170.73000486
_cell_formula_units_Z   1
loop_
 _symmetry_equiv_pos_site_id
 _symmetry_equiv_pos_as_xyz
  1  'x, y, z'
loop_
 _atom_site_type_symbol
 _atom_site_label
 _atom_site_symmetry_multiplicity
 _atom_site_fract_x
 _atom_site_fract_y
 _atom_site_fract_z
 _atom_site_occupancy
  Mg  Mg0  1  0.16757170  0.16757170  0.16757170  1
  Al  Al1  1  0.40438032  0.40438032  0.40438032  1
  Al  Al2  1  0.93076190  0.93076190  0.93076190  1
  Se  Se3  1  0.87126998  0.87126998  0.87126998  1
  Se  Se4  1  0.46387224  0.46387224  0.46387224  1
  Se  Se5  1  0.29157683  0.29157683  0.29157683  1
  Se  Se6  1  0.04356604  0.04356604  0.04356604  1
