# generated using pymatgen
data_Bi2TeI
_symmetry_space_group_name_H-M   'P 1'
_cell_length_a   4.44328750
_cell_length_b   4.44378783
_cell_length_c   18.30960956
_cell_angle_alpha   83.05616272
_cell_angle_beta   96.96500637
_cell_angle_gamma   119.99368138
_symmetry_Int_Tables_number   1
_chemical_formula_structural   Bi2TeI
_chemical_formula_sum   'Bi4 Te2 I2'
_cell_volume   310.03317040
_cell_formula_units_Z   2
loop_
 _symmetry_equiv_pos_site_id
 _symmetry_equiv_pos_as_xyz
  1  'x, y, z'
loop_
 _atom_site_type_symbol
 _atom_site_label
 _atom_site_symmetry_multiplicity
 _atom_site_fract_x
 _atom_site_fract_y
 _atom_site_fract_z
 _atom_site_occupancy
  Bi  Bi0  1  0.55853455  0.44244302  0.67491328  1
  Bi  Bi1  1  0.44146545  0.55755698  0.32508672  1
  Bi  Bi2  1  0.31776111  0.68213654  0.95335618  1
  Bi  Bi3  1  0.68223889  0.31786346  0.04664382  1
  Te  Te4  1  0.80613980  0.19324995  0.41888363  1
  Te  Te5  1  0.19386020  0.80675005  0.58111637  1
  I  I6  1  0.06947219  0.92939996  0.20939666  1
  I  I7  1  0.93052781  0.07060004  0.79060334  1
