# generated using pymatgen
data_Nb(PS4)2
_symmetry_space_group_name_H-M   'P 1'
_cell_length_a   9.43079079
_cell_length_b   11.66217856
_cell_length_c   11.75353093
_cell_angle_alpha   119.74322371
_cell_angle_beta   90.00000000
_cell_angle_gamma   90.00000000
_symmetry_Int_Tables_number   1
_chemical_formula_structural   Nb(PS4)2
_chemical_formula_sum   'Nb4 P8 S32'
_cell_volume   1122.39233679
_cell_formula_units_Z   4
loop_
 _symmetry_equiv_pos_site_id
 _symmetry_equiv_pos_as_xyz
  1  'x, y, z'
loop_
 _atom_site_type_symbol
 _atom_site_label
 _atom_site_symmetry_multiplicity
 _atom_site_fract_x
 _atom_site_fract_y
 _atom_site_fract_z
 _atom_site_occupancy
  Nb  Nb0  1  0.50000000  0.57070313  0.14140625  1
  Nb  Nb1  1  0.50000000  0.42929687  0.85859375  1
  Nb  Nb2  1  0.00000000  0.07070313  0.14140625  1
  Nb  Nb3  1  0.00000000  0.92929687  0.85859375  1
  P  P4  1  0.51682758  0.12496745  0.62248512  1
  P  P5  1  0.98317242  0.62496745  0.62248512  1
  P  P6  1  0.01682758  0.99751668  0.62248512  1
  P  P7  1  0.48317242  0.49751668  0.62248512  1
  P  P8  1  0.51682758  0.50248332  0.37751488  1
  P  P9  1  0.01682758  0.37503255  0.37751488  1
  P  P10  1  0.48317242  0.87503255  0.37751488  1
  P  P11  1  0.98317242  0.00248332  0.37751488  1
  S  S12  1  0.88031922  0.07717091  0.77425993  1
  S  S13  1  0.82907683  0.09150176  0.33291258  1
  S  S14  1  0.77850243  0.01374065  0.00000000  1
  S  S15  1  0.37095104  0.64377425  0.00000000  1
  S  S16  1  0.57785016  0.36413914  0.43522520  1
  S  S17  1  0.61968078  0.80291199  0.22574007  1
  S  S18  1  0.17092317  0.24140982  0.33291258  1
  S  S19  1  0.88031922  0.30291199  0.22574007  1
  S  S20  1  0.92214984  0.86413914  0.43522520  1
  S  S21  1  0.87095104  0.85622575  -0.00000000  1
  S  S22  1  0.67092317  0.25859018  0.66708742  1
  S  S23  1  0.12904896  0.14377425  0.00000000  1
  S  S24  1  0.32907683  0.40849824  0.66708742  1
  S  S25  1  0.22149757  0.98625935  -0.00000000  1
  S  S26  1  0.38031922  0.19708801  0.77425993  1
  S  S27  1  0.11968078  0.92282909  0.22574007  1
  S  S28  1  0.27850243  0.48625935  -0.00000000  1
  S  S29  1  0.07785016  0.13586086  0.56477480  1
  S  S30  1  0.57785016  0.92891395  0.56477480  1
  S  S31  1  0.62904896  0.35622575  -0.00000000  1
  S  S32  1  0.07785016  0.57108605  0.43522520  1
  S  S33  1  0.42214984  0.07108605  0.43522520  1
  S  S34  1  0.72149757  0.51374065  0.00000000  1
  S  S35  1  0.17092317  0.90849824  0.66708742  1
  S  S36  1  0.82907683  0.75859018  0.66708742  1
  S  S37  1  0.32907683  0.74140982  0.33291258  1
  S  S38  1  0.67092317  0.59150176  0.33291258  1
  S  S39  1  0.38031922  0.42282909  0.22574007  1
  S  S40  1  0.61968078  0.57717091  0.77425993  1
  S  S41  1  0.42214984  0.63586086  0.56477480  1
  S  S42  1  0.11968078  0.69708801  0.77425993  1
  S  S43  1  0.92214984  0.42891395  0.56477480  1
