# generated using pymatgen
data_GaTeCl
_symmetry_space_group_name_H-M   'P 1'
_cell_length_a   4.13276387
_cell_length_b   5.89076509
_cell_length_c   14.38606832
_cell_angle_alpha   90.00000000
_cell_angle_beta   90.00000000
_cell_angle_gamma   90.00000000
_symmetry_Int_Tables_number   1
_chemical_formula_structural   GaTeCl
_chemical_formula_sum   'Ga4 Te4 Cl4'
_cell_volume   350.23086360
_cell_formula_units_Z   4
loop_
 _symmetry_equiv_pos_site_id
 _symmetry_equiv_pos_as_xyz
  1  'x, y, z'
loop_
 _atom_site_type_symbol
 _atom_site_label
 _atom_site_symmetry_multiplicity
 _atom_site_fract_x
 _atom_site_fract_y
 _atom_site_fract_z
 _atom_site_occupancy
  Ga  Ga0  1  0.50000000  0.50927170  0.18805519  1
  Ga  Ga1  1  0.00000000  0.99072830  0.68805519  1
  Ga  Ga2  1  0.00000000  0.00927170  0.31194481  1
  Ga  Ga3  1  0.50000000  0.49072830  0.81194481  1
  Te  Te4  1  0.50000000  0.26514450  0.65161097  1
  Te  Te5  1  0.00000000  0.76514450  0.84838903  1
  Te  Te6  1  0.00000000  0.23485550  0.15161097  1
  Te  Te7  1  0.50000000  0.73485550  0.34838903  1
  Cl  Cl8  1  0.50000000  0.23846031  0.92674554  1
  Cl  Cl9  1  0.00000000  0.73846031  0.57325446  1
  Cl  Cl10  1  0.50000000  0.76153969  0.07325446  1
  Cl  Cl11  1  0.00000000  0.26153969  0.42674554  1
