# generated using pymatgen
data_CrCl3
_symmetry_space_group_name_H-M   'P 1'
_cell_length_a   5.97927957
_cell_length_b   5.97927891
_cell_length_c   6.06776189
_cell_angle_alpha   99.22832036
_cell_angle_beta   99.22832092
_cell_angle_gamma   119.97102938
_symmetry_Int_Tables_number   1
_chemical_formula_structural   CrCl3
_chemical_formula_sum   'Cr2 Cl6'
_cell_volume   178.00503958
_cell_formula_units_Z   2
loop_
 _symmetry_equiv_pos_site_id
 _symmetry_equiv_pos_as_xyz
  1  'x, y, z'
loop_
 _atom_site_type_symbol
 _atom_site_label
 _atom_site_symmetry_multiplicity
 _atom_site_fract_x
 _atom_site_fract_y
 _atom_site_fract_z
 _atom_site_occupancy
  Cr  Cr0  1  0.16654937  0.83345063  0.00000000  1
  Cr  Cr1  1  0.83345063  0.16654937  -0.00000000  1
  Cl  Cl2  1  0.07236052  0.42499996  0.76879660  1
  Cl  Cl3  1  0.57500004  0.92763948  0.23120340  1
  Cl  Cl4  1  0.77833468  0.77833468  0.76607909  1
  Cl  Cl5  1  0.22166532  0.22166532  0.23392091  1
  Cl  Cl6  1  0.42499996  0.07236052  0.76879660  1
  Cl  Cl7  1  0.92763948  0.57500004  0.23120340  1
