# generated using pymatgen
data_USe3
_symmetry_space_group_name_H-M   'P 1'
_cell_length_a   5.49724655
_cell_length_b   3.97287866
_cell_length_c   9.47369794
_cell_angle_alpha   90.00000000
_cell_angle_beta   98.16987473
_cell_angle_gamma   90.00000000
_symmetry_Int_Tables_number   1
_chemical_formula_structural   USe3
_chemical_formula_sum   'U2 Se6'
_cell_volume   204.80469747
_cell_formula_units_Z   2
loop_
 _symmetry_equiv_pos_site_id
 _symmetry_equiv_pos_as_xyz
  1  'x, y, z'
loop_
 _atom_site_type_symbol
 _atom_site_label
 _atom_site_symmetry_multiplicity
 _atom_site_fract_x
 _atom_site_fract_y
 _atom_site_fract_z
 _atom_site_occupancy
  U  U0  1  0.29075937  0.75000000  0.16625434  1
  U  U1  1  0.70924063  0.25000000  0.83374566  1
  Se  Se2  1  0.91394948  0.75000000  0.66609159  1
  Se  Se3  1  0.08605052  0.25000000  0.33390841  1
  Se  Se4  1  0.23602529  0.25000000  0.94377113  1
  Se  Se5  1  0.76397471  0.75000000  0.05622887  1
  Se  Se6  1  0.57885937  0.25000000  0.33190622  1
  Se  Se7  1  0.42114063  0.75000000  0.66809378  1
