# generated using pymatgen
data_AgBiO2
_symmetry_space_group_name_H-M   'P 1'
_cell_length_a   3.59896131
_cell_length_b   6.62724421
_cell_length_c   6.68481421
_cell_angle_alpha   114.62913526
_cell_angle_beta   90.00000000
_cell_angle_gamma   90.00000000
_symmetry_Int_Tables_number   1
_chemical_formula_structural   AgBiO2
_chemical_formula_sum   'Ag2 Bi2 O4'
_cell_volume   144.93557271
_cell_formula_units_Z   2
loop_
 _symmetry_equiv_pos_site_id
 _symmetry_equiv_pos_as_xyz
  1  'x, y, z'
loop_
 _atom_site_type_symbol
 _atom_site_label
 _atom_site_symmetry_multiplicity
 _atom_site_fract_x
 _atom_site_fract_y
 _atom_site_fract_z
 _atom_site_occupancy
  Ag  Ag0  1  0.75000000  0.97598103  0.31654305  1
  Ag  Ag1  1  0.25000000  0.02401897  0.68345695  1
  Bi  Bi2  1  0.25000000  0.44141167  0.23773980  1
  Bi  Bi3  1  0.75000000  0.55858833  0.76226020  1
  O  O4  1  0.75000000  0.63335617  0.19131738  1
  O  O5  1  0.25000000  0.36664383  0.80868262  1
  O  O6  1  0.25000000  0.68454825  0.58671693  1
  O  O7  1  0.75000000  0.31545175  0.41328307  1
