# generated using pymatgen
data_NdBr3
_symmetry_space_group_name_H-M   'P 1'
_cell_length_a   4.12667043
_cell_length_b   6.66946314
_cell_length_c   9.19222473
_cell_angle_alpha   90.00000000
_cell_angle_beta   90.00000000
_cell_angle_gamma   108.02129509
_symmetry_Int_Tables_number   1
_chemical_formula_structural   NdBr3
_chemical_formula_sum   'Nd2 Br6'
_cell_volume   240.58311384
_cell_formula_units_Z   2
loop_
 _symmetry_equiv_pos_site_id
 _symmetry_equiv_pos_as_xyz
  1  'x, y, z'
loop_
 _atom_site_type_symbol
 _atom_site_label
 _atom_site_symmetry_multiplicity
 _atom_site_fract_x
 _atom_site_fract_y
 _atom_site_fract_z
 _atom_site_occupancy
  Nd  Nd0  1  0.74332581  0.48665161  0.25000000  1
  Nd  Nd1  1  0.25667419  0.51334839  0.75000000  1
  Br  Br2  1  0.35553011  0.71105922  0.43521958  1
  Br  Br3  1  0.64446989  0.28894078  0.56478042  1
  Br  Br4  1  0.91997501  0.83994902  0.75000000  1
  Br  Br5  1  0.08002499  0.16005098  0.25000000  1
  Br  Br6  1  0.35553011  0.71105922  0.06478042  1
  Br  Br7  1  0.64446989  0.28894078  0.93521958  1
