# generated using pymatgen
data_BSbO3
_symmetry_space_group_name_H-M   'P 1'
_cell_length_a   4.91917136
_cell_length_b   4.91906797
_cell_length_c   11.62181835
_cell_angle_alpha   83.82097956
_cell_angle_beta   96.17923546
_cell_angle_gamma   90.50303614
_symmetry_Int_Tables_number   1
_chemical_formula_structural   BSbO3
_chemical_formula_sum   'B4 Sb4 O12'
_cell_volume   277.96242956
_cell_formula_units_Z   4
loop_
 _symmetry_equiv_pos_site_id
 _symmetry_equiv_pos_as_xyz
  1  'x, y, z'
loop_
 _atom_site_type_symbol
 _atom_site_label
 _atom_site_symmetry_multiplicity
 _atom_site_fract_x
 _atom_site_fract_y
 _atom_site_fract_z
 _atom_site_occupancy
  B  B0  1  0.14652678  0.36476990  0.87563151  1
  B  B1  1  0.36477411  0.14653631  0.62437749  1
  B  B2  1  0.63522589  0.85346369  0.37562251  1
  B  B3  1  0.85347322  0.63523010  0.12436849  1
  Sb  Sb4  1  0.33500570  0.99848079  0.13724803  1
  Sb  Sb5  1  0.00150814  0.66500531  0.63724849  1
  Sb  Sb6  1  0.66499430  0.00151921  0.86275197  1
  Sb  Sb7  1  -0.00150814  0.33499469  0.36275151  1
  O  O8  1  0.78114143  0.41878573  0.19899827  1
  O  O9  1  0.41878773  0.78110403  0.30099413  1
  O  O10  1  0.88165914  0.33118516  0.90413430  1
  O  O11  1  0.66880135  0.11833692  0.40412392  1
  O  O12  1  0.33119865  0.88166308  0.59587608  1
  O  O13  1  0.33198396  0.15646729  0.92190018  1
  O  O14  1  0.58121227  0.21889597  0.69900587  1
  O  O15  1  0.21885857  0.58121427  0.80100173  1
  O  O16  1  0.66801604  0.84353271  0.07809982  1
  O  O17  1  0.15645700  0.33198015  0.57810462  1
  O  O18  1  0.11834086  0.66881484  0.09586570  1
  O  O19  1  0.84354300  0.66801985  0.42189538  1
