# generated using pymatgen
data_TiClO
_symmetry_space_group_name_H-M   'P 1'
_cell_length_a   3.25670102
_cell_length_b   4.01633606
_cell_length_c   7.51104007
_cell_angle_alpha   90.00000000
_cell_angle_beta   90.00000000
_cell_angle_gamma   90.00000000
_symmetry_Int_Tables_number   1
_chemical_formula_structural   TiClO
_chemical_formula_sum   'Ti2 Cl2 O2'
_cell_volume   98.24444747
_cell_formula_units_Z   2
loop_
 _symmetry_equiv_pos_site_id
 _symmetry_equiv_pos_as_xyz
  1  'x, y, z'
loop_
 _atom_site_type_symbol
 _atom_site_label
 _atom_site_symmetry_multiplicity
 _atom_site_fract_x
 _atom_site_fract_y
 _atom_site_fract_z
 _atom_site_occupancy
  Ti  Ti0  1  0.75000000  0.25000000  0.09427270  1
  Ti  Ti1  1  0.25000000  0.75000000  0.90572730  1
  Cl  Cl2  1  0.75000000  0.75000000  0.66769060  1
  Cl  Cl3  1  0.25000000  0.25000000  0.33230940  1
  O  O4  1  0.25000000  0.25000000  0.92166250  1
  O  O5  1  0.75000000  0.75000000  0.07833750  1
