# generated using pymatgen
data_Bi14Te13S8
_symmetry_space_group_name_H-M   'P 1'
_cell_length_a   12.10855964
_cell_length_b   12.10856017
_cell_length_c   12.10855959
_cell_angle_alpha   55.77497373
_cell_angle_beta   55.77497408
_cell_angle_gamma   55.77497447
_symmetry_Int_Tables_number   1
_chemical_formula_structural   Bi14Te13S8
_chemical_formula_sum   'Bi14 Te13 S8'
_cell_volume   1132.34477663
_cell_formula_units_Z   1
loop_
 _symmetry_equiv_pos_site_id
 _symmetry_equiv_pos_as_xyz
  1  'x, y, z'
loop_
 _atom_site_type_symbol
 _atom_site_label
 _atom_site_symmetry_multiplicity
 _atom_site_fract_x
 _atom_site_fract_y
 _atom_site_fract_z
 _atom_site_occupancy
  Bi  Bi0  1  0.39255492  0.39255492  0.39255492  1
  Bi  Bi1  1  0.88612565  0.18627938  0.74235210  1
  Bi  Bi2  1  0.53685787  0.68095899  0.95292943  1
  Bi  Bi3  1  0.11387435  0.81372062  0.25764790  1
  Bi  Bi4  1  0.46314213  0.31904101  0.04707057  1
  Bi  Bi5  1  0.68095899  0.95292943  0.53685787  1
  Bi  Bi6  1  0.04707057  0.46314213  0.31904101  1
  Bi  Bi7  1  0.18627938  0.74235210  0.88612565  1
  Bi  Bi8  1  0.81372062  0.25764790  0.11387435  1
  Bi  Bi9  1  0.31904101  0.04707057  0.46314213  1
  Bi  Bi10  1  0.95292943  0.53685787  0.68095899  1
  Bi  Bi11  1  0.60744508  0.60744508  0.60744508  1
  Bi  Bi12  1  0.25764790  0.11387435  0.81372062  1
  Bi  Bi13  1  0.74235210  0.88612565  0.18627938  1
  Te  Te14  1  0.48557865  0.79012984  0.36732457  1
  Te  Te15  1  0.06666634  0.35860731  0.92943914  1
  Te  Te16  1  0.63267543  0.51442135  0.20987016  1
  Te  Te17  1  0.35860731  0.92943914  0.06666634  1
  Te  Te18  1  0.07056086  0.93333366  0.64139269  1
  Te  Te19  1  0.64139269  0.07056086  0.93333366  1
  Te  Te20  1  0.51442135  0.20987016  0.63267543  1
  Te  Te21  1  0.20987016  0.63267543  0.51442135  1
  Te  Te22  1  0.79012984  0.36732457  0.48557865  1
  Te  Te23  1  0.93333366  0.64139269  0.07056086  1
  Te  Te24  1  0.92943914  0.06666634  0.35860731  1
  Te  Te25  1  0.36732457  0.48557865  0.79012984  1
  Te  Te26  1  0.00000000  0.00000000  0.00000000  1
  S  S27  1  0.86129055  0.70760838  0.42862915  1
  S  S28  1  0.29239162  0.57137085  0.13870945  1
  S  S29  1  0.76937362  0.76937362  0.76937362  1
  S  S30  1  0.57137085  0.13870945  0.29239162  1
  S  S31  1  0.70760838  0.42862915  0.86129055  1
  S  S32  1  0.42862915  0.86129055  0.70760838  1
  S  S33  1  0.13870945  0.29239162  0.57137085  1
  S  S34  1  0.23062638  0.23062638  0.23062638  1
