# generated using pymatgen
data_InTeBr
_symmetry_space_group_name_H-M   'P 1'
_cell_length_a   7.36118060
_cell_length_b   7.65281429
_cell_length_c   8.51873148
_cell_angle_alpha   90.00000000
_cell_angle_beta   118.17621291
_cell_angle_gamma   90.00000000
_symmetry_Int_Tables_number   1
_chemical_formula_structural   InTeBr
_chemical_formula_sum   'In4 Te4 Br4'
_cell_volume   423.02465247
_cell_formula_units_Z   4
loop_
 _symmetry_equiv_pos_site_id
 _symmetry_equiv_pos_as_xyz
  1  'x, y, z'
loop_
 _atom_site_type_symbol
 _atom_site_label
 _atom_site_symmetry_multiplicity
 _atom_site_fract_x
 _atom_site_fract_y
 _atom_site_fract_z
 _atom_site_occupancy
  In  In0  1  0.97725069  0.70079703  0.11700401  1
  In  In1  1  0.02274931  0.20079703  0.38299599  1
  In  In2  1  0.02274931  0.29920297  0.88299599  1
  In  In3  1  0.97725069  0.79920297  0.61700401  1
  Te  Te4  1  0.22518301  0.86962299  0.44419829  1
  Te  Te5  1  0.77481699  0.36962299  0.05580171  1
  Te  Te6  1  0.77481699  0.13037701  0.55580171  1
  Te  Te7  1  0.22518301  0.63037701  0.94419829  1
  Br  Br8  1  0.67856134  0.90368712  0.91247180  1
  Br  Br9  1  0.32143866  0.40368712  0.58752820  1
  Br  Br10  1  0.32143866  0.09631288  0.08752820  1
  Br  Br11  1  0.67856134  0.59631288  0.41247180  1
