# generated using pymatgen
data_AgNO2
_symmetry_space_group_name_H-M   'P 1'
_cell_length_a   3.24048548
_cell_length_b   4.46161783
_cell_length_c   4.46161807
_cell_angle_alpha   69.47527257
_cell_angle_beta   68.70612992
_cell_angle_gamma   68.70613904
_symmetry_Int_Tables_number   1
_chemical_formula_structural   AgNO2
_chemical_formula_sum   'Ag1 N1 O2'
_cell_volume   54.19168161
_cell_formula_units_Z   1
loop_
 _symmetry_equiv_pos_site_id
 _symmetry_equiv_pos_as_xyz
  1  'x, y, z'
loop_
 _atom_site_type_symbol
 _atom_site_label
 _atom_site_symmetry_multiplicity
 _atom_site_fract_x
 _atom_site_fract_y
 _atom_site_fract_z
 _atom_site_occupancy
  Ag  Ag0  1  0.00000000  0.95540966  0.04459034  1
  N  N1  1  -0.00000000  0.39209912  0.60790088  1
  O  O2  1  0.83791395  0.68833116  0.63583994  1
  O  O3  1  0.16208605  0.36416006  0.31166884  1
