# generated using pymatgen
data_UI3
_symmetry_space_group_name_H-M   'P 1'
_cell_length_a   4.18330070
_cell_length_b   7.42676090
_cell_length_c   9.95971428
_cell_angle_alpha   90.00000000
_cell_angle_beta   90.00000000
_cell_angle_gamma   106.35792445
_symmetry_Int_Tables_number   1
_chemical_formula_structural   UI3
_chemical_formula_sum   'U2 I6'
_cell_volume   296.90664306
_cell_formula_units_Z   2
loop_
 _symmetry_equiv_pos_site_id
 _symmetry_equiv_pos_as_xyz
  1  'x, y, z'
loop_
 _atom_site_type_symbol
 _atom_site_label
 _atom_site_symmetry_multiplicity
 _atom_site_fract_x
 _atom_site_fract_y
 _atom_site_fract_z
 _atom_site_occupancy
  U  U0  1  0.73819978  0.47640056  0.25000000  1
  U  U1  1  0.26180022  0.52359944  0.75000000  1
  I  I2  1  0.35437794  0.70875687  0.43435420  1
  I  I3  1  0.64562206  0.29124313  0.56564580  1
  I  I4  1  0.92347998  0.84695996  0.75000000  1
  I  I5  1  0.07652002  0.15304004  0.25000000  1
  I  I6  1  0.35437794  0.70875687  0.06564580  1
  I  I7  1  0.64562206  0.29124313  0.93435420  1
