# generated using pymatgen
data_TiCo3O8
_symmetry_space_group_name_H-M   'P 1'
_cell_length_a   5.47070804
_cell_length_b   5.71360289
_cell_length_c   5.71360240
_cell_angle_alpha   60.00000747
_cell_angle_beta   58.52008275
_cell_angle_gamma   90.00000097
_symmetry_Int_Tables_number   1
_chemical_formula_structural   TiCo3O8
_chemical_formula_sum   'Ti1 Co3 O8'
_cell_volume   123.38511865
_cell_formula_units_Z   1
loop_
 _symmetry_equiv_pos_site_id
 _symmetry_equiv_pos_as_xyz
  1  'x, y, z'
loop_
 _atom_site_type_symbol
 _atom_site_label
 _atom_site_symmetry_multiplicity
 _atom_site_fract_x
 _atom_site_fract_y
 _atom_site_fract_z
 _atom_site_occupancy
  Ti  Ti0  1  0.00000000  0.00000000  0.00000000  1
  Co  Co1  1  0.00000000  0.00000000  0.50000000  1
  Co  Co2  1  -0.00000000  0.50000000  0.00000000  1
  Co  Co3  1  -0.00000000  0.50000000  0.50000000  1
  O  O4  1  0.22060190  0.24669344  0.02609154  1
  O  O5  1  0.22060190  0.24669344  0.50661213  1
  O  O6  1  0.22060190  0.72721403  0.02609154  1
  O  O7  1  0.21213883  0.73738028  0.52524144  1
  O  O8  1  0.78786117  0.26261972  0.47475856  1
  O  O9  1  0.77939810  0.27278597  0.97390846  1
  O  O10  1  0.77939810  0.75330656  0.49338787  1
  O  O11  1  0.77939810  0.75330656  0.97390846  1
