# generated using pymatgen
data_BiS2
_symmetry_space_group_name_H-M   'P 1'
_cell_length_a   4.05446280
_cell_length_b   8.24868669
_cell_length_c   9.34001802
_cell_angle_alpha   81.21417982
_cell_angle_beta   77.46430203
_cell_angle_gamma   75.77300349
_symmetry_Int_Tables_number   1
_chemical_formula_structural   BiS2
_chemical_formula_sum   'Bi4 S8'
_cell_volume   293.93359384
_cell_formula_units_Z   4
loop_
 _symmetry_equiv_pos_site_id
 _symmetry_equiv_pos_as_xyz
  1  'x, y, z'
loop_
 _atom_site_type_symbol
 _atom_site_label
 _atom_site_symmetry_multiplicity
 _atom_site_fract_x
 _atom_site_fract_y
 _atom_site_fract_z
 _atom_site_occupancy
  Bi  Bi0  1  0.29468265  0.30173481  0.10889889  1
  Bi  Bi1  1  0.39676712  0.82617203  0.38029373  1
  Bi  Bi2  1  0.60323288  0.17382597  0.61970827  1
  Bi  Bi3  1  0.70531735  0.69826419  0.89110211  1
  S  S4  1  0.34546920  0.46973984  0.83932277  1
  S  S5  1  0.78691228  0.07835338  0.34782206  1
  S  S6  1  0.92341178  0.61968736  0.53348808  1
  S  S7  1  0.21308772  0.92164462  0.65217994  1
  S  S8  1  0.03628413  0.87640784  0.05102290  1
  S  S9  1  0.07658822  0.38031064  0.46651392  1
  S  S10  1  0.65453080  0.53025816  0.16067923  1
  S  S11  1  0.96371587  0.12359016  0.94897910  1
