# generated using pymatgen
data_BiSe
_symmetry_space_group_name_H-M   'P 1'
_cell_length_a   4.24158584
_cell_length_b   4.24158478
_cell_length_c   13.05890583
_cell_angle_alpha   99.33768337
_cell_angle_beta   99.33768062
_cell_angle_gamma   89.99797587
_symmetry_Int_Tables_number   1
_chemical_formula_structural   BiSe
_chemical_formula_sum   'Bi2 Se2'
_cell_volume   228.67485429
_cell_formula_units_Z   2
loop_
 _symmetry_equiv_pos_site_id
 _symmetry_equiv_pos_as_xyz
  1  'x, y, z'
loop_
 _atom_site_type_symbol
 _atom_site_label
 _atom_site_symmetry_multiplicity
 _atom_site_fract_x
 _atom_site_fract_y
 _atom_site_fract_z
 _atom_site_occupancy
  Bi  Bi0  1  0.68385860  0.68385860  0.37077244  1
  Bi  Bi1  1  0.31304859  0.31304857  0.62923781  1
  Se  Se2  1  0.79913962  0.79913969  0.60354450  1
  Se  Se3  1  0.19595319  0.19595314  0.39644625  1
