# generated using pymatgen
data_CoO2
_symmetry_space_group_name_H-M   'P 1'
_cell_length_a   2.81839596
_cell_length_b   2.81839595
_cell_length_c   9.78065060
_cell_angle_alpha   82.40468026
_cell_angle_beta   82.40468165
_cell_angle_gamma   59.99543722
_symmetry_Int_Tables_number   1
_chemical_formula_structural   CoO2
_chemical_formula_sum   'Co1 O2'
_cell_volume   66.49127087
_cell_formula_units_Z   1
loop_
 _symmetry_equiv_pos_site_id
 _symmetry_equiv_pos_as_xyz
  1  'x, y, z'
loop_
 _atom_site_type_symbol
 _atom_site_label
 _atom_site_symmetry_multiplicity
 _atom_site_fract_x
 _atom_site_fract_y
 _atom_site_fract_z
 _atom_site_occupancy
  Co  Co0  1  0.99966717  0.99966717  0.00666668  1
  O  O1  1  0.36253567  0.36253569  0.91009166  1
  O  O2  1  0.63679816  0.63679814  0.10324066  1
