# generated using pymatgen
data_VPbClO3
_symmetry_space_group_name_H-M   'P 1'
_cell_length_a   5.30929291
_cell_length_b   7.17836691
_cell_length_c   10.13252036
_cell_angle_alpha   90.00000000
_cell_angle_beta   90.00000000
_cell_angle_gamma   90.00000000
_symmetry_Int_Tables_number   1
_chemical_formula_structural   VPbClO3
_chemical_formula_sum   'V4 Pb4 Cl4 O12'
_cell_volume   386.17114769
_cell_formula_units_Z   4
loop_
 _symmetry_equiv_pos_site_id
 _symmetry_equiv_pos_as_xyz
  1  'x, y, z'
loop_
 _atom_site_type_symbol
 _atom_site_label
 _atom_site_symmetry_multiplicity
 _atom_site_fract_x
 _atom_site_fract_y
 _atom_site_fract_z
 _atom_site_occupancy
  V  V0  1  0.75000000  0.93026514  0.52717781  1
  V  V1  1  0.25000000  0.43026514  0.97282219  1
  V  V2  1  0.75000000  0.56973486  0.02717781  1
  V  V3  1  0.25000000  0.06973486  0.47282219  1
  Pb  Pb4  1  0.75000000  0.39712705  0.67270830  1
  Pb  Pb5  1  0.75000000  0.10287295  0.17270830  1
  Pb  Pb6  1  0.25000000  0.89712705  0.82729170  1
  Pb  Pb7  1  0.25000000  0.60287295  0.32729170  1
  Cl  Cl8  1  0.75000000  0.44558746  0.39390613  1
  Cl  Cl9  1  0.75000000  0.05441254  0.89390613  1
  Cl  Cl10  1  0.25000000  0.55441254  0.60609387  1
  Cl  Cl11  1  0.25000000  0.94558746  0.10609387  1
  O  O12  1  0.49328150  0.88767811  0.41070044  1
  O  O13  1  0.00671850  0.61232189  0.91070044  1
  O  O14  1  0.25000000  0.23407283  0.36017323  1
  O  O15  1  0.75000000  0.76592717  0.63982677  1
  O  O16  1  0.50671850  0.11232189  0.58929956  1
  O  O17  1  0.99328150  0.11232189  0.58929956  1
  O  O18  1  0.99328150  0.38767811  0.08929956  1
  O  O19  1  0.49328150  0.61232189  0.91070044  1
  O  O20  1  0.00671850  0.88767811  0.41070044  1
  O  O21  1  0.50671850  0.38767811  0.08929956  1
  O  O22  1  0.75000000  0.73407283  0.13982677  1
  O  O23  1  0.25000000  0.26592717  0.86017323  1
