# generated using pymatgen
data_P
_symmetry_space_group_name_H-M   'P 1'
_cell_length_a   3.34124364
_cell_length_b   4.46864249
_cell_length_c   5.61090437
_cell_angle_alpha   90.00000000
_cell_angle_beta   107.32223703
_cell_angle_gamma   90.00000000
_symmetry_Int_Tables_number   1
_chemical_formula_structural   P
_chemical_formula_sum   P4
_cell_volume   79.97581368
_cell_formula_units_Z   4
loop_
 _symmetry_equiv_pos_site_id
 _symmetry_equiv_pos_as_xyz
  1  'x, y, z'
loop_
 _atom_site_type_symbol
 _atom_site_label
 _atom_site_symmetry_multiplicity
 _atom_site_fract_x
 _atom_site_fract_y
 _atom_site_fract_z
 _atom_site_occupancy
  P  P0  1  0.39924681  0.91784579  0.79849463  1
  P  P1  1  0.60075319  0.08215421  0.20150537  1
  P  P2  1  0.10075319  0.41784579  0.20150537  1
  P  P3  1  0.89924681  0.58215421  0.79849463  1
