# generated using pymatgen
data_TiS3
_symmetry_space_group_name_H-M   'P 1'
_cell_length_a   5.01669583
_cell_length_b   3.41517451
_cell_length_c   8.85686928
_cell_angle_alpha   90.00000000
_cell_angle_beta   97.01892059
_cell_angle_gamma   90.00000000
_symmetry_Int_Tables_number   1
_chemical_formula_structural   TiS3
_chemical_formula_sum   'Ti2 S6'
_cell_volume   150.60659198
_cell_formula_units_Z   2
loop_
 _symmetry_equiv_pos_site_id
 _symmetry_equiv_pos_as_xyz
  1  'x, y, z'
loop_
 _atom_site_type_symbol
 _atom_site_label
 _atom_site_symmetry_multiplicity
 _atom_site_fract_x
 _atom_site_fract_y
 _atom_site_fract_z
 _atom_site_occupancy
  Ti  Ti0  1  0.28257044  0.75000000  0.65244506  1
  Ti  Ti1  1  0.71742956  0.25000000  0.34755494  1
  S  S2  1  0.88149133  0.75000000  0.17401183  1
  S  S3  1  0.11850867  0.25000000  0.82598817  1
  S  S4  1  0.23866435  0.25000000  0.44974788  1
  S  S5  1  0.76133565  0.75000000  0.55025212  1
  S  S6  1  0.52586413  0.25000000  0.82219645  1
  S  S7  1  0.47413587  0.75000000  0.17780355  1
