# generated using pymatgen
data_Nb3IrSe8
_symmetry_space_group_name_H-M   'P 1'
_cell_length_a   6.99241760
_cell_length_b   7.01201711
_cell_length_c   13.10769073
_cell_angle_alpha   96.87199983
_cell_angle_beta   74.52620817
_cell_angle_gamma   119.90690667
_symmetry_Int_Tables_number   1
_chemical_formula_structural   Nb3IrSe8
_chemical_formula_sum   'Nb6 Ir2 Se16'
_cell_volume   536.83855486
_cell_formula_units_Z   2
loop_
 _symmetry_equiv_pos_site_id
 _symmetry_equiv_pos_as_xyz
  1  'x, y, z'
loop_
 _atom_site_type_symbol
 _atom_site_label
 _atom_site_symmetry_multiplicity
 _atom_site_fract_x
 _atom_site_fract_y
 _atom_site_fract_z
 _atom_site_occupancy
  Nb  Nb0  1  0.01832753  0.52357966  0.99939502  1
  Nb  Nb1  1  0.25637220  0.02366197  0.49932779  1
  Nb  Nb2  1  0.02968345  0.99760533  0.00276828  1
  Nb  Nb3  1  0.49814157  0.53486363  0.99821651  1
  Nb  Nb4  1  0.78902438  0.03495293  0.49814190  1
  Nb  Nb5  1  0.71566758  0.49769042  0.50269373  1
  Ir  Ir6  1  0.25274376  0.45288490  0.50079646  1
  Ir  Ir7  1  0.44969810  0.95279266  0.00086860  1
  Se  Se8  1  0.86581569  0.34651281  0.62901480  1
  Se  Se9  1  0.85025140  0.84064537  0.63103392  1
  Se  Se10  1  0.41448303  0.17539463  0.87182975  1
  Se  Se11  1  0.65835199  0.18634889  0.36735446  1
  Se  Se12  1  0.63963171  0.67548922  0.37176059  1
  Se  Se13  1  0.39440001  0.66263800  0.85628314  1
  Se  Se14  1  0.34234019  0.31434115  0.64559179  1
  Se  Se15  1  0.60198666  0.84640913  0.12908761  1
  Se  Se16  1  0.16250728  0.16271597  0.35622005  1
  Se  Se17  1  0.35475210  0.80499745  0.60947560  1
  Se  Se18  1  0.91103381  0.68625469  0.86741877  1
  Se  Se19  1  0.10967501  0.34054517  0.13109873  1
  Se  Se20  1  0.15075081  0.65266889  0.39062915  1
  Se  Se21  1  0.07671952  0.81424075  0.14566043  1
  Se  Se22  1  0.59110835  0.30491323  0.10953620  1
  Se  Se23  1  0.86167386  0.15257618  0.89070170  1
