# generated using pymatgen
data_Br2O
_symmetry_space_group_name_H-M   'P 1'
_cell_length_a   3.87633567
_cell_length_b   6.77650115
_cell_length_c   10.33460097
_cell_angle_alpha   90.00000000
_cell_angle_beta   90.00000000
_cell_angle_gamma   90.00000000
_symmetry_Int_Tables_number   1
_chemical_formula_structural   Br2O
_chemical_formula_sum   'Br8 O4'
_cell_volume   271.46922749
_cell_formula_units_Z   4
loop_
 _symmetry_equiv_pos_site_id
 _symmetry_equiv_pos_as_xyz
  1  'x, y, z'
loop_
 _atom_site_type_symbol
 _atom_site_label
 _atom_site_symmetry_multiplicity
 _atom_site_fract_x
 _atom_site_fract_y
 _atom_site_fract_z
 _atom_site_occupancy
  Br  Br0  1  0.64019152  0.32051874  0.50746600  1
  Br  Br1  1  0.35980848  0.82051874  0.49253400  1
  Br  Br2  1  0.85980848  0.32051874  0.00746600  1
  Br  Br3  1  0.14019152  0.82051874  0.99253400  1
  Br  Br4  1  0.09596401  0.49644666  0.22733516  1
  Br  Br5  1  0.90403599  -0.00355334  0.77266484  1
  Br  Br6  1  0.40403599  0.49644666  0.72733516  1
  Br  Br7  1  0.59596401  -0.00355334  0.27266484  1
  O  O8  1  0.35038102  0.70493461  0.14771279  1
  O  O9  1  0.64961898  0.20493461  0.85228721  1
  O  O10  1  0.14961898  0.70493461  0.64771279  1
  O  O11  1  0.85038102  0.20493461  0.35228721  1
