# generated using pymatgen
data_CrF2
_symmetry_space_group_name_H-M   'P 1'
_cell_length_a   3.55242480
_cell_length_b   4.70072273
_cell_length_c   5.54075322
_cell_angle_alpha   90.00000000
_cell_angle_beta   121.69298759
_cell_angle_gamma   90.00000000
_symmetry_Int_Tables_number   1
_chemical_formula_structural   CrF2
_chemical_formula_sum   'Cr2 F4'
_cell_volume   78.72711053
_cell_formula_units_Z   2
loop_
 _symmetry_equiv_pos_site_id
 _symmetry_equiv_pos_as_xyz
  1  'x, y, z'
loop_
 _atom_site_type_symbol
 _atom_site_label
 _atom_site_symmetry_multiplicity
 _atom_site_fract_x
 _atom_site_fract_y
 _atom_site_fract_z
 _atom_site_occupancy
  Cr  Cr0  1  0.00000000  0.50000000  0.50000000  1
  Cr  Cr1  1  0.00000000  0.00000000  0.00000000  1
  F  F2  1  0.75118671  0.80289454  0.20613743  1
  F  F3  1  0.24881329  0.30289454  0.29386257  1
  F  F4  1  0.75118671  0.69710546  0.70613743  1
  F  F5  1  0.24881329  0.19710546  0.79386257  1
