# generated using pymatgen
data_IrCl3
_symmetry_space_group_name_H-M   'P 1'
_cell_length_a   6.09619733
_cell_length_b   6.09619678
_cell_length_c   5.95117197
_cell_angle_alpha   99.37013557
_cell_angle_beta   99.37013170
_cell_angle_gamma   120.03142732
_symmetry_Int_Tables_number   1
_chemical_formula_structural   IrCl3
_chemical_formula_sum   'Ir2 Cl6'
_cell_volume   181.02991644
_cell_formula_units_Z   2
loop_
 _symmetry_equiv_pos_site_id
 _symmetry_equiv_pos_as_xyz
  1  'x, y, z'
loop_
 _atom_site_type_symbol
 _atom_site_label
 _atom_site_symmetry_multiplicity
 _atom_site_fract_x
 _atom_site_fract_y
 _atom_site_fract_z
 _atom_site_occupancy
  Ir  Ir0  1  0.16657206  0.83342794  0.00000000  1
  Ir  Ir1  1  0.83342794  0.16657206  -0.00000000  1
  Cl  Cl2  1  0.92261362  0.57322135  0.23111742  1
  Cl  Cl3  1  0.42677865  0.07738638  0.76888258  1
  Cl  Cl4  1  0.77625390  0.77625390  0.76707868  1
  Cl  Cl5  1  0.22374610  0.22374610  0.23292132  1
  Cl  Cl6  1  0.57322135  0.92261362  0.23111742  1
  Cl  Cl7  1  0.07738638  0.42677865  0.76888258  1
