# generated using pymatgen
data_As4S3
_symmetry_space_group_name_H-M   'P 1'
_cell_length_a   7.99566898
_cell_length_b   9.05389920
_cell_length_c   10.27467581
_cell_angle_alpha   90.00000000
_cell_angle_beta   90.00000000
_cell_angle_gamma   90.00000000
_symmetry_Int_Tables_number   1
_chemical_formula_structural   As4S3
_chemical_formula_sum   'As16 S12'
_cell_volume   743.80413548
_cell_formula_units_Z   4
loop_
 _symmetry_equiv_pos_site_id
 _symmetry_equiv_pos_as_xyz
  1  'x, y, z'
loop_
 _atom_site_type_symbol
 _atom_site_label
 _atom_site_symmetry_multiplicity
 _atom_site_fract_x
 _atom_site_fract_y
 _atom_site_fract_z
 _atom_site_occupancy
  As  As0  1  0.59059139  0.64173167  0.27717918  1
  As  As1  1  0.25000000  0.15939795  0.44031841  1
  As  As2  1  0.75000000  0.84060205  0.55968159  1
  As  As3  1  0.75000000  0.34060205  0.94031841  1
  As  As4  1  0.25000000  0.53174899  0.57432275  1
  As  As5  1  0.75000000  0.46825101  0.42567725  1
  As  As6  1  0.25000000  0.03174899  0.92567725  1
  As  As7  1  0.75000000  0.96825101  0.07432275  1
  As  As8  1  0.25000000  0.65939795  0.05968159  1
  As  As9  1  0.90940861  0.64173167  0.27717918  1
  As  As10  1  0.09059139  0.85826833  0.77717918  1
  As  As11  1  0.59059139  0.14173167  0.22282082  1
  As  As12  1  0.40940861  0.85826833  0.77717918  1
  As  As13  1  0.90940861  0.14173167  0.22282082  1
  As  As14  1  0.09059139  0.35826833  0.72282082  1
  As  As15  1  0.40940861  0.35826833  0.72282082  1
  S  S16  1  0.03559757  0.66781570  0.91222659  1
  S  S17  1  0.53559757  0.33218430  0.08777341  1
  S  S18  1  0.53559757  0.83218430  0.41222659  1
  S  S19  1  0.03559757  0.16781570  0.58777341  1
  S  S20  1  0.96440243  0.33218430  0.08777341  1
  S  S21  1  0.75000000  0.59522030  0.61393656  1
  S  S22  1  0.25000000  0.40477970  0.38606344  1
  S  S23  1  0.25000000  0.90477970  0.11393656  1
  S  S24  1  0.75000000  0.09522030  0.88606344  1
  S  S25  1  0.96440243  0.83218430  0.41222659  1
  S  S26  1  0.46440243  0.66781570  0.91222659  1
  S  S27  1  0.46440243  0.16781570  0.58777341  1
