# generated using pymatgen
data_Tl2O
_symmetry_space_group_name_H-M   'P 1'
_cell_length_a   3.58702531
_cell_length_b   3.58702543
_cell_length_c   12.95292453
_cell_angle_alpha   82.07307963
_cell_angle_beta   82.07308156
_cell_angle_gamma   59.99298493
_symmetry_Int_Tables_number   1
_chemical_formula_structural   Tl2O
_chemical_formula_sum   'Tl4 O2'
_cell_volume   142.48181194
_cell_formula_units_Z   2
loop_
 _symmetry_equiv_pos_site_id
 _symmetry_equiv_pos_as_xyz
  1  'x, y, z'
loop_
 _atom_site_type_symbol
 _atom_site_label
 _atom_site_symmetry_multiplicity
 _atom_site_fract_x
 _atom_site_fract_y
 _atom_site_fract_z
 _atom_site_occupancy
  Tl  Tl0  1  0.12266224  0.12266224  0.63203459  1
  Tl  Tl1  1  0.28923010  0.28923010  0.13127480  1
  Tl  Tl2  1  0.87733778  0.87733778  0.36796508  1
  Tl  Tl3  1  0.71076989  0.71076989  0.86872485  1
  O  O4  1  0.58316465  0.58316465  0.24991361  1
  O  O5  1  0.41683534  0.41683534  0.75008607  1
