# generated using pymatgen
data_InClO
_symmetry_space_group_name_H-M   'P 1'
_cell_length_a   3.57671275
_cell_length_b   4.11628399
_cell_length_c   8.09149759
_cell_angle_alpha   90.00000000
_cell_angle_beta   90.00000000
_cell_angle_gamma   90.00000000
_symmetry_Int_Tables_number   1
_chemical_formula_structural   InClO
_chemical_formula_sum   'In2 Cl2 O2'
_cell_volume   119.12922124
_cell_formula_units_Z   2
loop_
 _symmetry_equiv_pos_site_id
 _symmetry_equiv_pos_as_xyz
  1  'x, y, z'
loop_
 _atom_site_type_symbol
 _atom_site_label
 _atom_site_symmetry_multiplicity
 _atom_site_fract_x
 _atom_site_fract_y
 _atom_site_fract_z
 _atom_site_occupancy
  In  In0  1  0.00000000  0.00000000  0.12538787  1
  In  In1  1  0.50000000  0.50000000  0.87461213  1
  Cl  Cl2  1  0.00000000  0.50000000  0.65054453  1
  Cl  Cl3  1  0.50000000  0.00000000  0.34945547  1
  O  O4  1  0.50000000  0.00000000  0.95401836  1
  O  O5  1  0.00000000  0.50000000  0.04598164  1
