# generated using pymatgen
data_CdPS3
_symmetry_space_group_name_H-M   'P 1'
_cell_length_a   7.44946156
_cell_length_b   7.44946148
_cell_length_c   7.44946183
_cell_angle_alpha   49.75066584
_cell_angle_beta   49.75066124
_cell_angle_gamma   49.75065835
_symmetry_Int_Tables_number   1
_chemical_formula_structural   CdPS3
_chemical_formula_sum   'Cd2 P2 S6'
_cell_volume   221.49592595
_cell_formula_units_Z   2
loop_
 _symmetry_equiv_pos_site_id
 _symmetry_equiv_pos_as_xyz
  1  'x, y, z'
loop_
 _atom_site_type_symbol
 _atom_site_label
 _atom_site_symmetry_multiplicity
 _atom_site_fract_x
 _atom_site_fract_y
 _atom_site_fract_z
 _atom_site_occupancy
  Cd  Cd0  1  0.67209638  0.67209638  0.67209638  1
  Cd  Cd1  1  0.32810273  0.32810273  0.32810273  1
  P  P2  1  0.94198261  0.94198261  0.94198261  1
  P  P3  1  0.05824124  0.05824124  0.05824124  1
  S  S4  1  0.90112385  0.23153229  0.60510578  1
  S  S5  1  0.60510578  0.90112385  0.23153229  1
  S  S6  1  0.76865759  0.39512395  0.09908056  1
  S  S7  1  0.09908056  0.76865759  0.39512395  1
  S  S8  1  0.39512395  0.09908056  0.76865759  1
  S  S9  1  0.23153229  0.60510578  0.90112385  1
