# generated using pymatgen
data_TiCl3
_symmetry_space_group_name_H-M   'P 1'
_cell_length_a   6.78626230
_cell_length_b   6.78626201
_cell_length_c   6.78626174
_cell_angle_alpha   52.50302869
_cell_angle_beta   52.50303518
_cell_angle_gamma   52.50303052
_symmetry_Int_Tables_number   1
_chemical_formula_structural   TiCl3
_chemical_formula_sum   'Ti2 Cl6'
_cell_volume   182.09832894
_cell_formula_units_Z   2
loop_
 _symmetry_equiv_pos_site_id
 _symmetry_equiv_pos_as_xyz
  1  'x, y, z'
loop_
 _atom_site_type_symbol
 _atom_site_label
 _atom_site_symmetry_multiplicity
 _atom_site_fract_x
 _atom_site_fract_y
 _atom_site_fract_z
 _atom_site_occupancy
  Ti  Ti0  1  0.66661239  0.66661239  0.66661239  1
  Ti  Ti1  1  0.33338761  0.33338761  0.33338761  1
  Cl  Cl2  1  0.57777536  0.92018197  0.26172276  1
  Cl  Cl3  1  0.92018197  0.26172276  0.57777536  1
  Cl  Cl4  1  0.73827724  0.42222464  0.07981803  1
  Cl  Cl5  1  0.07981803  0.73827724  0.42222464  1
  Cl  Cl6  1  0.42222464  0.07981803  0.73827724  1
  Cl  Cl7  1  0.26172276  0.57777536  0.92018197  1
