# generated using pymatgen
data_SrH4O3
_symmetry_space_group_name_H-M   'P 1'
_cell_length_a   3.67851001
_cell_length_b   6.16169114
_cell_length_c   6.65940650
_cell_angle_alpha   90.00000000
_cell_angle_beta   90.00000000
_cell_angle_gamma   90.00000000
_symmetry_Int_Tables_number   1
_chemical_formula_structural   SrH4O3
_chemical_formula_sum   'Sr2 H8 O6'
_cell_volume   150.94105909
_cell_formula_units_Z   2
loop_
 _symmetry_equiv_pos_site_id
 _symmetry_equiv_pos_as_xyz
  1  'x, y, z'
loop_
 _atom_site_type_symbol
 _atom_site_label
 _atom_site_symmetry_multiplicity
 _atom_site_fract_x
 _atom_site_fract_y
 _atom_site_fract_z
 _atom_site_occupancy
  Sr  Sr0  1  0.00000000  0.62900872  0.75197932  1
  Sr  Sr1  1  0.00000000  0.37099128  0.25197932  1
  H  H2  1  0.50000000  0.29374101  0.60260110  1
  H  H3  1  0.50000000  0.70625899  0.10260110  1
  H  H4  1  0.50000000  0.96844400  0.59804432  1
  H  H5  1  0.50000000  0.03155600  0.09804432  1
  H  H6  1  0.21081626  0.12112059  0.82952810  1
  H  H7  1  0.78918374  0.87887941  0.32952810  1
  H  H8  1  0.21081626  0.87887941  0.32952810  1
  H  H9  1  0.78918374  0.12112059  0.82952810  1
  O  O10  1  0.00000000  0.21413615  0.87771377  1
  O  O11  1  0.50000000  0.56456878  0.03648999  1
  O  O12  1  0.50000000  0.94224802  0.74291530  1
  O  O13  1  0.50000000  0.05775198  0.24291530  1
  O  O14  1  0.00000000  0.78586385  0.37771377  1
  O  O15  1  0.50000000  0.43543122  0.53648999  1
