# generated using pymatgen
data_Pr2I5
_symmetry_space_group_name_H-M   'P 1'
_cell_length_a   8.69658377
_cell_length_b   4.34665832
_cell_length_c   14.56994584
_cell_angle_alpha   90.00000000
_cell_angle_beta   90.09787401
_cell_angle_gamma   90.00000000
_symmetry_Int_Tables_number   1
_chemical_formula_structural   Pr2I5
_chemical_formula_sum   'Pr4 I10'
_cell_volume   550.75885876
_cell_formula_units_Z   2
loop_
 _symmetry_equiv_pos_site_id
 _symmetry_equiv_pos_as_xyz
  1  'x, y, z'
loop_
 _atom_site_type_symbol
 _atom_site_label
 _atom_site_symmetry_multiplicity
 _atom_site_fract_x
 _atom_site_fract_y
 _atom_site_fract_z
 _atom_site_occupancy
  Pr  Pr0  1  0.09069245  0.75000000  0.15453731  1
  Pr  Pr1  1  0.90930755  0.25000000  0.84546269  1
  Pr  Pr2  1  0.58009811  0.75000000  0.65744153  1
  Pr  Pr3  1  0.41990189  0.25000000  0.34255847  1
  I  I4  1  0.66033817  0.75000000  0.27589112  1
  I  I5  1  0.33966183  0.25000000  0.72410888  1
  I  I6  1  0.15109099  0.75000000  0.92809835  1
  I  I7  1  0.84890901  0.25000000  0.07190165  1
  I  I8  1  0.69557592  0.25000000  0.50819264  1
  I  I9  1  0.30442408  0.75000000  0.49180736  1
  I  I10  1  0.05019640  0.25000000  0.31809156  1
  I  I11  1  0.94980360  0.75000000  0.68190844  1
  I  I12  1  0.36173159  0.25000000  0.12060911  1
  I  I13  1  0.63826841  0.75000000  0.87939089  1
