# generated using pymatgen
data_RbAuSe
_symmetry_space_group_name_H-M   'P 1'
_cell_length_a   5.36513243
_cell_length_b   5.36513212
_cell_length_c   6.91140906
_cell_angle_alpha   90.00000000
_cell_angle_beta   90.00000000
_cell_angle_gamma   101.95515143
_symmetry_Int_Tables_number   1
_chemical_formula_structural   RbAuSe
_chemical_formula_sum   'Rb2 Au2 Se2'
_cell_volume   194.62739888
_cell_formula_units_Z   2
loop_
 _symmetry_equiv_pos_site_id
 _symmetry_equiv_pos_as_xyz
  1  'x, y, z'
loop_
 _atom_site_type_symbol
 _atom_site_label
 _atom_site_symmetry_multiplicity
 _atom_site_fract_x
 _atom_site_fract_y
 _atom_site_fract_z
 _atom_site_occupancy
  Rb  Rb0  1  0.63169246  0.36830754  0.25000000  1
  Rb  Rb1  1  0.36830754  0.63169246  0.75000000  1
  Au  Au2  1  0.00000000  0.00000000  0.00000000  1
  Au  Au3  1  0.00000000  0.00000000  0.50000000  1
  Se  Se4  1  0.20969160  0.79030840  0.25000000  1
  Se  Se5  1  0.79030840  0.20969160  0.75000000  1
