# generated using pymatgen
data_VSe
_symmetry_space_group_name_H-M   'P 1'
_cell_length_a   3.61544717
_cell_length_b   3.61532688
_cell_length_c   6.23333077
_cell_angle_alpha   90.00114081
_cell_angle_beta   90.00085901
_cell_angle_gamma   90.00001008
_symmetry_Int_Tables_number   1
_chemical_formula_structural   VSe
_chemical_formula_sum   'V2 Se2'
_cell_volume   81.47601182
_cell_formula_units_Z   2
loop_
 _symmetry_equiv_pos_site_id
 _symmetry_equiv_pos_as_xyz
  1  'x, y, z'
loop_
 _atom_site_type_symbol
 _atom_site_label
 _atom_site_symmetry_multiplicity
 _atom_site_fract_x
 _atom_site_fract_y
 _atom_site_fract_z
 _atom_site_occupancy
  V  V0  1  -0.00000362  0.00000446  0.99999149  1
  V  V1  1  0.50000410  0.49999505  0.00000979  1
  Se  Se2  1  0.50000353  0.00000279  0.72265309  1
  Se  Se3  1  -0.00000300  0.49999670  0.27734463  1
