# generated using pymatgen
data_Pr4C2Cl5
_symmetry_space_group_name_H-M   'P 1'
_cell_length_a   3.88643790
_cell_length_b   7.86846759
_cell_length_c   9.69410683
_cell_angle_alpha   113.94371117
_cell_angle_beta   101.56276302
_cell_angle_gamma   90.00016737
_symmetry_Int_Tables_number   1
_chemical_formula_structural   Pr4C2Cl5
_chemical_formula_sum   'Pr4 C2 Cl5'
_cell_volume   264.34151250
_cell_formula_units_Z   1
loop_
 _symmetry_equiv_pos_site_id
 _symmetry_equiv_pos_as_xyz
  1  'x, y, z'
loop_
 _atom_site_type_symbol
 _atom_site_label
 _atom_site_symmetry_multiplicity
 _atom_site_fract_x
 _atom_site_fract_y
 _atom_site_fract_z
 _atom_site_occupancy
  Pr  Pr0  1  0.32595755  0.32594193  0.65185895  1
  Pr  Pr1  1  0.67404245  0.67405807  0.34814105  1
  Pr  Pr2  1  0.00000140  0.71469534  0.00000620  1
  Pr  Pr3  1  -0.00000140  0.28530466  0.99999380  1
  C  C4  1  0.45948462  0.45948003  0.91895341  1
  C  C5  1  0.54051538  0.54051997  0.08104659  1
  Cl  Cl6  1  0.16783769  0.39080024  0.33573088  1
  Cl  Cl7  1  0.83215419  0.05509203  0.66425589  1
  Cl  Cl8  1  0.83216231  0.60919976  0.66426912  1
  Cl  Cl9  1  0.16784581  0.94490797  0.33574411  1
  Cl  Cl10  1  0.50000000  -0.00000000  0.00000000  1
