# generated using pymatgen
data_ZnCl2
_symmetry_space_group_name_H-M   'P 1'
_cell_length_a   3.70052277
_cell_length_b   3.70052277
_cell_length_c   10.58705190
_cell_angle_alpha   90.00000000
_cell_angle_beta   90.00000000
_cell_angle_gamma   90.00000000
_symmetry_Int_Tables_number   1
_chemical_formula_structural   ZnCl2
_chemical_formula_sum   'Zn2 Cl4'
_cell_volume   144.97769958
_cell_formula_units_Z   2
loop_
 _symmetry_equiv_pos_site_id
 _symmetry_equiv_pos_as_xyz
  1  'x, y, z'
loop_
 _atom_site_type_symbol
 _atom_site_label
 _atom_site_symmetry_multiplicity
 _atom_site_fract_x
 _atom_site_fract_y
 _atom_site_fract_z
 _atom_site_occupancy
  Zn  Zn0  1  0.75000000  0.25000000  0.25000000  1
  Zn  Zn1  1  0.25000000  0.75000000  0.75000000  1
  Cl  Cl2  1  0.25000000  0.25000000  0.37900283  1
  Cl  Cl3  1  0.75000000  0.75000000  0.62099717  1
  Cl  Cl4  1  0.75000000  0.75000000  0.12099717  1
  Cl  Cl5  1  0.25000000  0.25000000  0.87900283  1
