# generated using pymatgen
data_U(OF)2
_symmetry_space_group_name_H-M   'P 1'
_cell_length_a   5.60350043
_cell_length_b   5.60349947
_cell_length_c   5.60350016
_cell_angle_alpha   44.35430254
_cell_angle_beta   44.35429237
_cell_angle_gamma   44.35429888
_symmetry_Int_Tables_number   1
_chemical_formula_structural   U(OF)2
_chemical_formula_sum   'U1 O2 F2'
_cell_volume   78.16008951
_cell_formula_units_Z   1
loop_
 _symmetry_equiv_pos_site_id
 _symmetry_equiv_pos_as_xyz
  1  'x, y, z'
loop_
 _atom_site_type_symbol
 _atom_site_label
 _atom_site_symmetry_multiplicity
 _atom_site_fract_x
 _atom_site_fract_y
 _atom_site_fract_z
 _atom_site_occupancy
  U  U0  1  0.00000000  0.00000000  0.00000000  1
  O  O1  1  0.11788484  0.11788484  0.11788484  1
  O  O2  1  0.88211516  0.88211516  0.88211516  1
  F  F3  1  0.33696344  0.33696344  0.33696344  1
  F  F4  1  0.66303656  0.66303656  0.66303656  1
