# generated using pymatgen
data_ScAg(PS3)2
_symmetry_space_group_name_H-M   'P 1'
_cell_length_a   6.19667232
_cell_length_b   6.19667232
_cell_length_c   12.89901296
_cell_angle_alpha   90.00000000
_cell_angle_beta   90.00000000
_cell_angle_gamma   119.99999328
_symmetry_Int_Tables_number   1
_chemical_formula_structural   ScAg(PS3)2
_chemical_formula_sum   'Sc2 Ag2 P4 S12'
_cell_volume   428.94756035
_cell_formula_units_Z   2
loop_
 _symmetry_equiv_pos_site_id
 _symmetry_equiv_pos_as_xyz
  1  'x, y, z'
loop_
 _atom_site_type_symbol
 _atom_site_label
 _atom_site_symmetry_multiplicity
 _atom_site_fract_x
 _atom_site_fract_y
 _atom_site_fract_z
 _atom_site_occupancy
  Sc  Sc0  1  0.00000000  0.00000000  0.25000000  1
  Sc  Sc1  1  0.00000000  0.00000000  0.75000000  1
  Ag  Ag2  1  0.33333300  0.66666700  0.25000000  1
  Ag  Ag3  1  0.66666700  0.33333300  0.75000000  1
  P  P4  1  0.66666700  0.33333300  0.33664242  1
  P  P5  1  0.66666700  0.33333300  0.16335758  1
  P  P6  1  0.33333300  0.66666700  0.66335758  1
  P  P7  1  0.33333300  0.66666700  0.83664242  1
  S  S8  1  0.30558156  0.33659000  0.61974832  1
  S  S9  1  0.03100844  0.69441844  0.61974832  1
  S  S10  1  0.66341000  0.96899156  0.61974832  1
  S  S11  1  0.03100844  0.33659000  0.88025168  1
  S  S12  1  0.66341000  0.69441844  0.88025168  1
  S  S13  1  0.33659000  0.03100844  0.38025168  1
  S  S14  1  0.69441844  0.66341000  0.38025168  1
  S  S15  1  0.96899156  0.30558156  0.38025168  1
  S  S16  1  0.69441844  0.03100844  0.11974832  1
  S  S17  1  0.96899156  0.66341000  0.11974832  1
  S  S18  1  0.30558156  0.96899156  0.88025168  1
  S  S19  1  0.33659000  0.30558156  0.11974832  1
