# generated using pymatgen
data_CdSbS2Cl
_symmetry_space_group_name_H-M   'P 1'
_cell_length_a   3.95572733
_cell_length_b   9.58759249
_cell_length_c   12.57321557
_cell_angle_alpha   90.00000000
_cell_angle_beta   90.00000000
_cell_angle_gamma   90.00000000
_symmetry_Int_Tables_number   1
_chemical_formula_structural   CdSbS2Cl
_chemical_formula_sum   'Cd4 Sb4 S8 Cl4'
_cell_volume   476.85053705
_cell_formula_units_Z   4
loop_
 _symmetry_equiv_pos_site_id
 _symmetry_equiv_pos_as_xyz
  1  'x, y, z'
loop_
 _atom_site_type_symbol
 _atom_site_label
 _atom_site_symmetry_multiplicity
 _atom_site_fract_x
 _atom_site_fract_y
 _atom_site_fract_z
 _atom_site_occupancy
  Cd  Cd0  1  0.75000000  0.00018784  0.26914002  1
  Cd  Cd1  1  0.25000000  0.49981216  0.76914002  1
  Cd  Cd2  1  0.25000000  -0.00018784  0.73085998  1
  Cd  Cd3  1  0.75000000  0.50018784  0.23085998  1
  Sb  Sb4  1  0.75000000  0.81257641  0.96992994  1
  Sb  Sb5  1  0.75000000  0.31257641  0.53007006  1
  Sb  Sb6  1  0.25000000  0.18742359  0.03007006  1
  Sb  Sb7  1  0.25000000  0.68742359  0.46992994  1
  S  S8  1  0.75000000  0.74123820  0.33299592  1
  S  S9  1  0.25000000  0.25876180  0.66700408  1
  S  S10  1  0.25000000  0.94688091  0.11040600  1
  S  S11  1  0.25000000  0.75876180  0.83299592  1
  S  S12  1  0.75000000  0.05311909  0.88959400  1
  S  S13  1  0.25000000  0.44688091  0.38959400  1
  S  S14  1  0.75000000  0.24123820  0.16700408  1
  S  S15  1  0.75000000  0.55311909  0.61040600  1
  Cl  Cl16  1  0.75000000  0.42624108  0.89606967  1
  Cl  Cl17  1  0.25000000  0.07375892  0.39606967  1
  Cl  Cl18  1  0.25000000  0.57375892  0.10393033  1
  Cl  Cl19  1  0.75000000  0.92624108  0.60393033  1
