# generated using pymatgen
data_C3N
_symmetry_space_group_name_H-M   'P 1'
_cell_length_a   3.35854662
_cell_length_b   3.35854662
_cell_length_c   4.73943243
_cell_angle_alpha   90.00000000
_cell_angle_beta   90.00000000
_cell_angle_gamma   139.04850100
_symmetry_Int_Tables_number   1
_chemical_formula_structural   C3N
_chemical_formula_sum   'C3 N1'
_cell_volume   35.03876103
_cell_formula_units_Z   1
loop_
 _symmetry_equiv_pos_site_id
 _symmetry_equiv_pos_as_xyz
  1  'x, y, z'
loop_
 _atom_site_type_symbol
 _atom_site_label
 _atom_site_symmetry_multiplicity
 _atom_site_fract_x
 _atom_site_fract_y
 _atom_site_fract_z
 _atom_site_occupancy
  C  C0  1  0.62500614  0.37499386  0.50000000  1
  C  C1  1  0.62499704  0.37500296  0.22382649  1
  C  C2  1  0.62499704  0.37500296  0.77617351  1
  N  N3  1  0.12500077  0.87499923  0.00000000  1
