# generated using pymatgen
data_ReSe2
_symmetry_space_group_name_H-M   'P 1'
_cell_length_a   6.67794491
_cell_length_b   6.79929339
_cell_length_c   6.85586029
_cell_angle_alpha   91.89108814
_cell_angle_beta   104.91203687
_cell_angle_gamma   118.87176466
_symmetry_Int_Tables_number   1
_chemical_formula_structural   ReSe2
_chemical_formula_sum   'Re4 Se8'
_cell_volume   258.83054957
_cell_formula_units_Z   4
loop_
 _symmetry_equiv_pos_site_id
 _symmetry_equiv_pos_as_xyz
  1  'x, y, z'
loop_
 _atom_site_type_symbol
 _atom_site_label
 _atom_site_symmetry_multiplicity
 _atom_site_fract_x
 _atom_site_fract_y
 _atom_site_fract_z
 _atom_site_occupancy
  Re  Re0  1  0.06395613  0.31548767  0.49176445  1
  Re  Re1  1  0.93604387  0.68451233  0.50823555  1
  Re  Re2  1  0.48698985  0.29087173  0.49706773  1
  Re  Re3  1  0.51301015  0.70912827  0.50293227  1
  Se  Se4  1  0.24763542  0.38139087  0.20821274  1
  Se  Se5  1  0.75236458  0.61860913  0.79178726  1
  Se  Se6  1  0.72073167  0.33890131  0.24125793  1
  Se  Se7  1  0.27926833  0.66109869  0.75874207  1
  Se  Se8  1  0.22625481  0.10955757  0.72178422  1
  Se  Se9  1  0.77374519  0.89044243  0.27821578  1
  Se  Se10  1  0.75462367  0.13645006  0.69491144  1
  Se  Se11  1  0.24537633  0.86354994  0.30508856  1
