# generated using pymatgen
data_P4S5
_symmetry_space_group_name_H-M   'P 1'
_cell_length_a   6.41229482
_cell_length_b   10.91259602
_cell_length_c   6.64911842
_cell_angle_alpha   90.00000000
_cell_angle_beta   115.83535316
_cell_angle_gamma   90.00000000
_symmetry_Int_Tables_number   1
_chemical_formula_structural   P4S5
_chemical_formula_sum   'P8 S10'
_cell_volume   418.76684270
_cell_formula_units_Z   2
loop_
 _symmetry_equiv_pos_site_id
 _symmetry_equiv_pos_as_xyz
  1  'x, y, z'
loop_
 _atom_site_type_symbol
 _atom_site_label
 _atom_site_symmetry_multiplicity
 _atom_site_fract_x
 _atom_site_fract_y
 _atom_site_fract_z
 _atom_site_occupancy
  P  P0  1  0.27867804  0.75000000  0.32866675  1
  P  P1  1  0.72132196  0.25000000  0.67133325  1
  P  P2  1  0.87184644  0.75000000  0.76691170  1
  P  P3  1  0.12815356  0.25000000  0.23308830  1
  P  P4  1  0.41637696  0.85747859  0.85236800  1
  P  P5  1  0.58362304  0.35747859  0.14763200  1
  P  P6  1  0.58362304  0.14252141  0.14763200  1
  P  P7  1  0.41637696  0.64252141  0.85236800  1
  S  S8  1  0.78357513  0.39731435  0.49230898  1
  S  S9  1  0.21642487  0.89731435  0.50769102  1
  S  S10  1  0.76614432  0.60286418  0.91503137  1
  S  S11  1  0.23385568  0.10286418  0.08496863  1
  S  S12  1  0.64253509  0.75000000  0.41360848  1
  S  S13  1  0.76614432  0.89713582  0.91503137  1
  S  S14  1  0.35746491  0.25000000  0.58639152  1
  S  S15  1  0.78357513  0.10268565  0.49230898  1
  S  S16  1  0.23385568  0.39713582  0.08496863  1
  S  S17  1  0.21642487  0.60268565  0.50769102  1
