# generated using pymatgen
data_ErAg(PSe3)2
_symmetry_space_group_name_H-M   'P 1'
_cell_length_a   6.61475315
_cell_length_b   6.61475315
_cell_length_c   13.49646830
_cell_angle_alpha   90.00000000
_cell_angle_beta   90.00000000
_cell_angle_gamma   119.99998996
_symmetry_Int_Tables_number   1
_chemical_formula_structural   ErAg(PSe3)2
_chemical_formula_sum   'Er2 Ag2 P4 Se12'
_cell_volume   511.42045967
_cell_formula_units_Z   2
loop_
 _symmetry_equiv_pos_site_id
 _symmetry_equiv_pos_as_xyz
  1  'x, y, z'
loop_
 _atom_site_type_symbol
 _atom_site_label
 _atom_site_symmetry_multiplicity
 _atom_site_fract_x
 _atom_site_fract_y
 _atom_site_fract_z
 _atom_site_occupancy
  Er  Er0  1  0.00000000  0.00000000  0.25000000  1
  Er  Er1  1  0.00000000  0.00000000  0.75000000  1
  Ag  Ag2  1  0.33333300  0.66666700  0.25000000  1
  Ag  Ag3  1  0.66666700  0.33333300  0.75000000  1
  P  P4  1  0.66666700  0.33333300  0.33477078  1
  P  P5  1  0.66666700  0.33333300  0.16522922  1
  P  P6  1  0.33333300  0.66666700  0.66522922  1
  P  P7  1  0.33333300  0.66666700  0.83477078  1
  Se  Se8  1  0.34104357  0.32186722  0.38406283  1
  Se  Se9  1  0.67813278  0.65895643  0.11593717  1
  Se  Se10  1  0.34104357  0.01917535  0.11593717  1
  Se  Se11  1  0.98082465  0.32186722  0.11593717  1
  Se  Se12  1  0.01917535  0.34104357  0.61593717  1
  Se  Se13  1  0.65895643  0.98082465  0.88406283  1
  Se  Se14  1  0.65895643  0.67813278  0.61593717  1
  Se  Se15  1  0.32186722  0.34104357  0.88406283  1
  Se  Se16  1  0.67813278  0.01917535  0.38406283  1
  Se  Se17  1  0.01917535  0.67813278  0.88406283  1
  Se  Se18  1  0.32186722  0.98082465  0.61593717  1
  Se  Se19  1  0.98082465  0.65895643  0.38406283  1
