# generated using pymatgen
data_ZrBr
_symmetry_space_group_name_H-M   'P 1'
_cell_length_a   9.62743657
_cell_length_b   9.62743657
_cell_length_c   9.62743629
_cell_angle_alpha   21.11571848
_cell_angle_beta   21.11571980
_cell_angle_gamma   21.11571490
_symmetry_Int_Tables_number   1
_chemical_formula_structural   ZrBr
_chemical_formula_sum   'Zr2 Br2'
_cell_volume   101.42929450
_cell_formula_units_Z   2
loop_
 _symmetry_equiv_pos_site_id
 _symmetry_equiv_pos_as_xyz
  1  'x, y, z'
loop_
 _atom_site_type_symbol
 _atom_site_label
 _atom_site_symmetry_multiplicity
 _atom_site_fract_x
 _atom_site_fract_y
 _atom_site_fract_z
 _atom_site_occupancy
  Zr  Zr0  1  0.20820151  0.20820151  0.20820151  1
  Zr  Zr1  1  0.79179849  0.79179849  0.79179849  1
  Br  Br2  1  0.39137109  0.39137109  0.39137109  1
  Br  Br3  1  0.60862891  0.60862891  0.60862891  1
