# generated using pymatgen
data_ErTe3
_symmetry_space_group_name_H-M   'P 1'
_cell_length_a   4.02319484
_cell_length_b   4.58458874
_cell_length_c   14.03646771
_cell_angle_alpha   90.00000000
_cell_angle_beta   98.23955958
_cell_angle_gamma   90.00000000
_symmetry_Int_Tables_number   1
_chemical_formula_structural   ErTe3
_chemical_formula_sum   'Er2 Te6'
_cell_volume   256.22587476
_cell_formula_units_Z   2
loop_
 _symmetry_equiv_pos_site_id
 _symmetry_equiv_pos_as_xyz
  1  'x, y, z'
loop_
 _atom_site_type_symbol
 _atom_site_label
 _atom_site_symmetry_multiplicity
 _atom_site_fract_x
 _atom_site_fract_y
 _atom_site_fract_z
 _atom_site_occupancy
  Er  Er0  1  0.94910765  0.25000000  0.89821630  1
  Er  Er1  1  0.05089235  0.75000000  0.10178370  1
  Te  Te2  1  0.68731571  0.25000000  0.37463043  1
  Te  Te3  1  0.55267965  0.25000000  0.10535829  1
  Te  Te4  1  0.83624332  0.25000000  0.67248764  1
  Te  Te5  1  0.44732035  0.75000000  0.89464171  1
  Te  Te6  1  0.16375668  0.75000000  0.32751236  1
  Te  Te7  1  0.31268429  0.75000000  0.62536957  1
