# generated using pymatgen
data_SnSe
_symmetry_space_group_name_H-M   'P 1'
_cell_length_a   4.28520699
_cell_length_b   4.30472995
_cell_length_c   6.33532086
_cell_angle_alpha   90.00000000
_cell_angle_beta   109.76722389
_cell_angle_gamma   90.00000000
_symmetry_Int_Tables_number   1
_chemical_formula_structural   SnSe
_chemical_formula_sum   'Sn2 Se2'
_cell_volume   109.97913166
_cell_formula_units_Z   2
loop_
 _symmetry_equiv_pos_site_id
 _symmetry_equiv_pos_as_xyz
  1  'x, y, z'
loop_
 _atom_site_type_symbol
 _atom_site_label
 _atom_site_symmetry_multiplicity
 _atom_site_fract_x
 _atom_site_fract_y
 _atom_site_fract_z
 _atom_site_occupancy
  Sn  Sn0  1  0.12699934  0.75000000  0.25399769  1
  Sn  Sn1  1  0.87300066  0.25000000  0.74600231  1
  Se  Se2  1  0.35700752  0.75000000  0.71401404  1
  Se  Se3  1  0.64299248  0.25000000  0.28598596  1
