# generated using pymatgen
data_B2(CN2)3
_symmetry_space_group_name_H-M   'P 1'
_cell_length_a   5.70852657
_cell_length_b   5.70852657
_cell_length_c   5.70852693
_cell_angle_alpha   94.12032703
_cell_angle_beta   94.12032703
_cell_angle_gamma   94.12031277
_symmetry_Int_Tables_number   1
_chemical_formula_structural   B2(CN2)3
_chemical_formula_sum   'B2 C3 N6'
_cell_volume   184.50959976
_cell_formula_units_Z   1
loop_
 _symmetry_equiv_pos_site_id
 _symmetry_equiv_pos_as_xyz
  1  'x, y, z'
loop_
 _atom_site_type_symbol
 _atom_site_label
 _atom_site_symmetry_multiplicity
 _atom_site_fract_x
 _atom_site_fract_y
 _atom_site_fract_z
 _atom_site_occupancy
  B  B0  1  0.31443304  0.31443304  0.31443304  1
  B  B1  1  0.68556696  0.68556696  0.68556696  1
  C  C2  1  -0.00000000  0.58031945  0.41968055  1
  C  C3  1  0.41968055  0.00000000  0.58031945  1
  C  C4  1  0.58031945  0.41968055  -0.00000000  1
  N  N5  1  0.14854021  0.49088514  0.30831018  1
  N  N6  1  0.49088514  0.30831019  0.14854021  1
  N  N7  1  0.85145979  0.69168981  0.50911486  1
  N  N8  1  0.50911486  0.85145979  0.69168982  1
  N  N9  1  0.69168981  0.50911486  0.85145979  1
  N  N10  1  0.30831019  0.14854021  0.49088514  1
