# generated using pymatgen
data_BaThBr6
_symmetry_space_group_name_H-M   'P 1'
_cell_length_a   4.57033048
_cell_length_b   9.48641630
_cell_length_c   11.60191296
_cell_angle_alpha   90.00000000
_cell_angle_beta   90.00000000
_cell_angle_gamma   90.00000000
_symmetry_Int_Tables_number   1
_chemical_formula_structural   BaThBr6
_chemical_formula_sum   'Ba2 Th2 Br12'
_cell_volume   503.01320631
_cell_formula_units_Z   2
loop_
 _symmetry_equiv_pos_site_id
 _symmetry_equiv_pos_as_xyz
  1  'x, y, z'
loop_
 _atom_site_type_symbol
 _atom_site_label
 _atom_site_symmetry_multiplicity
 _atom_site_fract_x
 _atom_site_fract_y
 _atom_site_fract_z
 _atom_site_occupancy
  Ba  Ba0  1  0.50000000  0.25000000  0.25219269  1
  Ba  Ba1  1  0.50000000  0.75000000  0.74780731  1
  Th  Th2  1  0.00000000  0.25000000  0.73158888  1
  Th  Th3  1  0.00000000  0.75000000  0.26841112  1
  Br  Br4  1  0.00000000  0.53557066  0.84984615  1
  Br  Br5  1  0.00000000  0.25000000  0.45996765  1
  Br  Br6  1  0.50000000  0.75000000  0.08948331  1
  Br  Br7  1  0.50000000  0.25000000  0.91051669  1
  Br  Br8  1  0.00000000  0.75000000  0.54003235  1
  Br  Br9  1  0.50000000  0.92795582  0.36237071  1
  Br  Br10  1  0.00000000  0.96442934  0.84984615  1
  Br  Br11  1  0.00000000  0.46442934  0.15015385  1
  Br  Br12  1  0.50000000  0.07204418  0.63762929  1
  Br  Br13  1  0.50000000  0.42795582  0.63762929  1
  Br  Br14  1  0.00000000  0.03557066  0.15015385  1
  Br  Br15  1  0.50000000  0.57204418  0.36237071  1
