# generated using pymatgen
data_Te2AuCl
_symmetry_space_group_name_H-M   'P 1'
_cell_length_a   4.09189841
_cell_length_b   6.44480697
_cell_length_c   8.78608830
_cell_angle_alpha   90.00000000
_cell_angle_beta   90.00000000
_cell_angle_gamma   108.50920567
_symmetry_Int_Tables_number   1
_chemical_formula_structural   Te2AuCl
_chemical_formula_sum   'Te4 Au2 Cl2'
_cell_volume   219.71694453
_cell_formula_units_Z   2
loop_
 _symmetry_equiv_pos_site_id
 _symmetry_equiv_pos_as_xyz
  1  'x, y, z'
loop_
 _atom_site_type_symbol
 _atom_site_label
 _atom_site_symmetry_multiplicity
 _atom_site_fract_x
 _atom_site_fract_y
 _atom_site_fract_z
 _atom_site_occupancy
  Te  Te0  1  0.61025736  0.22051573  0.95193773  1
  Te  Te1  1  0.38974264  0.77948427  0.04806227  1
  Te  Te2  1  0.38974264  0.77948427  0.45193773  1
  Te  Te3  1  0.61025736  0.22051573  0.54806227  1
  Au  Au4  1  0.91010480  0.82020960  0.25000000  1
  Au  Au5  1  0.08989520  0.17979040  0.75000000  1
  Cl  Cl6  1  0.16515274  0.33030549  0.25000000  1
  Cl  Cl7  1  0.83484726  0.66969451  0.75000000  1
