# generated using pymatgen
data_YIO
_symmetry_space_group_name_H-M   'P 1'
_cell_length_a   10.92690601
_cell_length_b   10.92690601
_cell_length_c   10.92690576
_cell_angle_alpha   20.64988666
_cell_angle_beta   20.64988666
_cell_angle_gamma   20.64989297
_symmetry_Int_Tables_number   1
_chemical_formula_structural   YIO
_chemical_formula_sum   'Y2 I2 O2'
_cell_volume   142.03667282
_cell_formula_units_Z   2
loop_
 _symmetry_equiv_pos_site_id
 _symmetry_equiv_pos_as_xyz
  1  'x, y, z'
loop_
 _atom_site_type_symbol
 _atom_site_label
 _atom_site_symmetry_multiplicity
 _atom_site_fract_x
 _atom_site_fract_y
 _atom_site_fract_z
 _atom_site_occupancy
  Y  Y0  1  0.28952525  0.28952525  0.28952525  1
  Y  Y1  1  0.71047475  0.71047475  0.71047475  1
  I  I2  1  0.11159263  0.11159263  0.11159263  1
  I  I3  1  0.88840737  0.88840737  0.88840737  1
  O  O4  1  0.36015216  0.36015216  0.36015216  1
  O  O5  1  0.63984784  0.63984784  0.63984784  1
