# generated using pymatgen
data_Ag2S
_symmetry_space_group_name_H-M   'P 1'
_cell_length_a   3.99010702
_cell_length_b   5.83091143
_cell_length_c   5.83224171
_cell_angle_alpha   90.00000000
_cell_angle_beta   90.70495822
_cell_angle_gamma   90.00000000
_symmetry_Int_Tables_number   1
_chemical_formula_structural   Ag2S
_chemical_formula_sum   'Ag4 S2'
_cell_volume   135.68243550
_cell_formula_units_Z   2
loop_
 _symmetry_equiv_pos_site_id
 _symmetry_equiv_pos_as_xyz
  1  'x, y, z'
loop_
 _atom_site_type_symbol
 _atom_site_label
 _atom_site_symmetry_multiplicity
 _atom_site_fract_x
 _atom_site_fract_y
 _atom_site_fract_z
 _atom_site_occupancy
  Ag  Ag0  1  -0.00037164  0.49959371  0.00031099  1
  Ag  Ag1  1  0.00037164  0.99959371  -0.00031099  1
  Ag  Ag2  1  -0.00027214  0.50028279  0.50031225  1
  Ag  Ag3  1  0.00027214  0.00028279  0.49968775  1
  S  S4  1  0.66864202  0.75012350  0.24763621  1
  S  S5  1  0.33135798  0.25012350  0.75236379  1
