# generated using pymatgen
data_V(CO3)2
_symmetry_space_group_name_H-M   'P 1'
_cell_length_a   4.75605945
_cell_length_b   5.76677046
_cell_length_c   4.75606057
_cell_angle_alpha   65.64635363
_cell_angle_beta   119.99999695
_cell_angle_gamma   114.35366448
_symmetry_Int_Tables_number   1
_chemical_formula_structural   V(CO3)2
_chemical_formula_sum   'V1 C2 O6'
_cell_volume   99.33989368
_cell_formula_units_Z   1
loop_
 _symmetry_equiv_pos_site_id
 _symmetry_equiv_pos_as_xyz
  1  'x, y, z'
loop_
 _atom_site_type_symbol
 _atom_site_label
 _atom_site_symmetry_multiplicity
 _atom_site_fract_x
 _atom_site_fract_y
 _atom_site_fract_z
 _atom_site_occupancy
  V  V0  1  0.50000000  0.50000000  0.50000000  1
  C  C1  1  0.23786339  0.71358916  0.76213661  1
  C  C2  1  0.76213661  0.28641084  0.23786339  1
  O  O3  1  0.05611451  0.28454380  0.29427458  1
  O  O4  1  0.47729614  0.71545620  0.05611451  1
  O  O5  1  0.29427458  0.71545620  0.52270386  1
  O  O6  1  0.70572542  0.28454380  0.47729614  1
  O  O7  1  0.52270386  0.28454380  0.94388549  1
  O  O8  1  0.94388549  0.71545620  0.70572542  1
