# generated using pymatgen
data_ZrTe3
_symmetry_space_group_name_H-M   'P 1'
_cell_length_a   5.97301714
_cell_length_b   3.94427369
_cell_length_c   10.27431537
_cell_angle_alpha   90.00000000
_cell_angle_beta   97.46755245
_cell_angle_gamma   90.00000000
_symmetry_Int_Tables_number   1
_chemical_formula_structural   ZrTe3
_chemical_formula_sum   'Zr2 Te6'
_cell_volume   240.00183996
_cell_formula_units_Z   2
loop_
 _symmetry_equiv_pos_site_id
 _symmetry_equiv_pos_as_xyz
  1  'x, y, z'
loop_
 _atom_site_type_symbol
 _atom_site_label
 _atom_site_symmetry_multiplicity
 _atom_site_fract_x
 _atom_site_fract_y
 _atom_site_fract_z
 _atom_site_occupancy
  Zr  Zr0  1  0.28737026  0.75000000  0.66710642  1
  Zr  Zr1  1  0.71262974  0.25000000  0.33289358  1
  Te  Te2  1  0.56631270  0.25000000  0.83081085  1
  Te  Te3  1  0.23696365  0.25000000  0.44583932  1
  Te  Te4  1  0.43368730  0.75000000  0.16918915  1
  Te  Te5  1  0.91241846  0.75000000  0.16402194  1
  Te  Te6  1  0.08758154  0.25000000  0.83597806  1
  Te  Te7  1  0.76303635  0.75000000  0.55416068  1
