# generated using pymatgen
data_VAg(PSe3)2
_symmetry_space_group_name_H-M   'P 1'
_cell_length_a   6.39820727
_cell_length_b   6.41169360
_cell_length_c   6.99517389
_cell_angle_alpha   81.53041234
_cell_angle_beta   72.83108429
_cell_angle_gamma   60.06955052
_symmetry_Int_Tables_number   1
_chemical_formula_structural   VAg(PSe3)2
_chemical_formula_sum   'V1 Ag1 P2 Se6'
_cell_volume   237.61122901
_cell_formula_units_Z   1
loop_
 _symmetry_equiv_pos_site_id
 _symmetry_equiv_pos_as_xyz
  1  'x, y, z'
loop_
 _atom_site_type_symbol
 _atom_site_label
 _atom_site_symmetry_multiplicity
 _atom_site_fract_x
 _atom_site_fract_y
 _atom_site_fract_z
 _atom_site_occupancy
  V  V0  1  0.32707317  0.34585266  0.00000000  1
  Ag  Ag1  1  0.66585594  0.66828813  -0.00000000  1
  P  P2  1  0.04990631  0.00581829  0.83329157  1
  P  P3  1  0.94427540  0.00581829  0.16670843  1
  Se  Se4  1  0.95290712  0.65280927  0.25956686  1
  Se  Se5  1  0.39428361  0.65280927  0.74043314  1
  Se  Se6  1  0.11545689  0.32395519  0.74661584  1
  Se  Se7  1  0.56058792  0.32395519  0.25338416  1
  Se  Se8  1  0.23390087  0.04374636  0.25247616  1
  Se  Se9  1  0.72235177  0.04374636  0.74752384  1
