# generated using pymatgen
data_SnO2
_symmetry_space_group_name_H-M   'P 1'
_cell_length_a   3.24709480
_cell_length_b   3.24721609
_cell_length_c   9.53481937
_cell_angle_alpha   109.89879141
_cell_angle_beta   90.00375846
_cell_angle_gamma   120.00001827
_symmetry_Int_Tables_number   1
_chemical_formula_structural   SnO2
_chemical_formula_sum   'Sn2 O4'
_cell_volume   80.05872839
_cell_formula_units_Z   2
loop_
 _symmetry_equiv_pos_site_id
 _symmetry_equiv_pos_as_xyz
  1  'x, y, z'
loop_
 _atom_site_type_symbol
 _atom_site_label
 _atom_site_symmetry_multiplicity
 _atom_site_fract_x
 _atom_site_fract_y
 _atom_site_fract_z
 _atom_site_occupancy
  Sn  Sn0  1  0.00219556  0.00038370  0.50204973  1
  Sn  Sn1  1  0.00224674  0.00014201  0.00210341  1
  O  O2  1  0.25977367  0.51560003  0.38842170  1
  O  O3  1  0.41110431  0.81779127  0.11538612  1
  O  O4  1  0.74461638  0.48515235  0.61567841  1
  O  O5  1  0.59338833  0.18249064  0.88881762  1
