# generated using pymatgen
data_MnS2
_symmetry_space_group_name_H-M   'P 1'
_cell_length_a   6.44187238
_cell_length_b   6.44187218
_cell_length_c   6.44187202
_cell_angle_alpha   29.86169500
_cell_angle_beta   29.86170023
_cell_angle_gamma   29.86170075
_symmetry_Int_Tables_number   1
_chemical_formula_structural   MnS2
_chemical_formula_sum   'Mn1 S2'
_cell_volume   58.69116356
_cell_formula_units_Z   1
loop_
 _symmetry_equiv_pos_site_id
 _symmetry_equiv_pos_as_xyz
  1  'x, y, z'
loop_
 _atom_site_type_symbol
 _atom_site_label
 _atom_site_symmetry_multiplicity
 _atom_site_fract_x
 _atom_site_fract_y
 _atom_site_fract_z
 _atom_site_occupancy
  Mn  Mn0  1  0.00000000  0.00000000  0.00000000  1
  S  S1  1  0.59435560  0.59435560  0.59435560  1
  S  S2  1  0.40564440  0.40564440  0.40564440  1
