# generated using pymatgen
data_Ge5(Te4As)2
_symmetry_space_group_name_H-M   'P 1'
_cell_length_a   4.21793975
_cell_length_b   4.21793975
_cell_length_c   27.16926223
_cell_angle_alpha   90.00000000
_cell_angle_beta   90.00000000
_cell_angle_gamma   119.99999452
_symmetry_Int_Tables_number   1
_chemical_formula_structural   Ge5(Te4As)2
_chemical_formula_sum   'Ge5 Te8 As2'
_cell_volume   418.60965842
_cell_formula_units_Z   1
loop_
 _symmetry_equiv_pos_site_id
 _symmetry_equiv_pos_as_xyz
  1  'x, y, z'
loop_
 _atom_site_type_symbol
 _atom_site_label
 _atom_site_symmetry_multiplicity
 _atom_site_fract_x
 _atom_site_fract_y
 _atom_site_fract_z
 _atom_site_occupancy
  Ge  Ge0  1  0.00000000  0.00000000  0.00000000  1
  Ge  Ge1  1  0.66666700  0.33333300  0.26008348  1
  Ge  Ge2  1  0.33333300  0.66666700  0.12976563  1
  Ge  Ge3  1  0.33333300  0.66666700  0.73991652  1
  Ge  Ge4  1  0.66666700  0.33333300  0.87023437  1
  Te  Te5  1  0.33333300  0.66666700  0.32328834  1
  Te  Te6  1  0.33333300  0.66666700  0.93531831  1
  Te  Te7  1  0.66666700  0.33333300  0.67671166  1
  Te  Te8  1  0.66666700  0.33333300  0.06468169  1
  Te  Te9  1  0.00000000  0.00000000  0.80593667  1
  Te  Te10  1  0.00000000  0.00000000  0.19406333  1
  Te  Te11  1  0.33333300  0.66666700  0.55139608  1
  Te  Te12  1  0.66666700  0.33333300  0.44860392  1
  As  As13  1  0.00000000  0.00000000  0.60793505  1
  As  As14  1  0.00000000  0.00000000  0.39206495  1
