# generated using pymatgen
data_HfSe3
_symmetry_space_group_name_H-M   'P 1'
_cell_length_a   5.42906929
_cell_length_b   3.73478385
_cell_length_c   9.49906298
_cell_angle_alpha   90.00000000
_cell_angle_beta   97.33337158
_cell_angle_gamma   90.00000000
_symmetry_Int_Tables_number   1
_chemical_formula_structural   HfSe3
_chemical_formula_sum   'Hf2 Se6'
_cell_volume   191.03133162
_cell_formula_units_Z   2
loop_
 _symmetry_equiv_pos_site_id
 _symmetry_equiv_pos_as_xyz
  1  'x, y, z'
loop_
 _atom_site_type_symbol
 _atom_site_label
 _atom_site_symmetry_multiplicity
 _atom_site_fract_x
 _atom_site_fract_y
 _atom_site_fract_z
 _atom_site_occupancy
  Hf  Hf0  1  0.28468932  0.75000000  0.65721841  1
  Hf  Hf1  1  0.71531068  0.25000000  0.34278159  1
  Se  Se2  1  0.89439951  0.75000000  0.16937273  1
  Se  Se3  1  0.10560049  0.25000000  0.83062727  1
  Se  Se4  1  0.23767046  0.25000000  0.44675153  1
  Se  Se5  1  0.76232954  0.75000000  0.55324847  1
  Se  Se6  1  0.54667070  0.25000000  0.82546123  1
  Se  Se7  1  0.45332930  0.75000000  0.17453877  1
