# generated using pymatgen
data_KH2N
_symmetry_space_group_name_H-M   'P 1'
_cell_length_a   4.55103210
_cell_length_b   3.73235435
_cell_length_c   6.18255846
_cell_angle_alpha   90.00000000
_cell_angle_beta   95.14941015
_cell_angle_gamma   90.00000000
_symmetry_Int_Tables_number   1
_chemical_formula_structural   KH2N
_chemical_formula_sum   'K2 H4 N2'
_cell_volume   104.59349018
_cell_formula_units_Z   2
loop_
 _symmetry_equiv_pos_site_id
 _symmetry_equiv_pos_as_xyz
  1  'x, y, z'
loop_
 _atom_site_type_symbol
 _atom_site_label
 _atom_site_symmetry_multiplicity
 _atom_site_fract_x
 _atom_site_fract_y
 _atom_site_fract_z
 _atom_site_occupancy
  K  K0  1  0.77487767  0.25000000  0.68815996  1
  K  K1  1  0.22512233  0.75000000  0.31184004  1
  H  H2  1  0.29854162  0.53627567  0.87110514  1
  H  H3  1  0.70145838  0.03627567  0.12889486  1
  H  H4  1  0.29854162  0.96372433  0.87110514  1
  H  H5  1  0.70145838  0.46372433  0.12889486  1
  N  N6  1  0.27388715  0.75000000  0.76467409  1
  N  N7  1  0.72611285  0.25000000  0.23532591  1
