# generated using pymatgen
data_TbHO2
_symmetry_space_group_name_H-M   'P 1'
_cell_length_a   4.48613416
_cell_length_b   3.67853406
_cell_length_c   5.61464498
_cell_angle_alpha   89.99681848
_cell_angle_beta   90.00000000
_cell_angle_gamma   90.00000000
_symmetry_Int_Tables_number   1
_chemical_formula_structural   TbHO2
_chemical_formula_sum   'Tb2 H2 O4'
_cell_volume   92.65510208
_cell_formula_units_Z   2
loop_
 _symmetry_equiv_pos_site_id
 _symmetry_equiv_pos_as_xyz
  1  'x, y, z'
loop_
 _atom_site_type_symbol
 _atom_site_label
 _atom_site_symmetry_multiplicity
 _atom_site_fract_x
 _atom_site_fract_y
 _atom_site_fract_z
 _atom_site_occupancy
  Tb  Tb0  1  0.25000000  0.25000131  0.18694973  1
  Tb  Tb1  1  0.75000000  0.74999869  0.81305027  1
  H  H2  1  0.25000000  0.75000076  0.60051872  1
  H  H3  1  0.75000000  0.24999924  0.39948128  1
  O  O4  1  0.25000000  0.75000626  0.92089850  1
  O  O5  1  0.75000000  0.24999374  0.07910150  1
  O  O6  1  0.25000000  0.74999257  0.42434272  1
  O  O7  1  0.75000000  0.25000743  0.57565728  1
