# generated using pymatgen
data_PdSCl
_symmetry_space_group_name_H-M   'P 1'
_cell_length_a   7.72939482
_cell_length_b   11.97905385
_cell_length_c   9.23381256
_cell_angle_alpha   90.00000000
_cell_angle_beta   110.73642906
_cell_angle_gamma   90.00000000
_symmetry_Int_Tables_number   1
_chemical_formula_structural   PdSCl
_chemical_formula_sum   'Pd12 S12 Cl12'
_cell_volume   799.58093762
_cell_formula_units_Z   12
loop_
 _symmetry_equiv_pos_site_id
 _symmetry_equiv_pos_as_xyz
  1  'x, y, z'
loop_
 _atom_site_type_symbol
 _atom_site_label
 _atom_site_symmetry_multiplicity
 _atom_site_fract_x
 _atom_site_fract_y
 _atom_site_fract_z
 _atom_site_occupancy
  Pd  Pd0  1  0.60362783  0.37253059  0.09801026  1
  Pd  Pd1  1  0.34904732  0.75000000  0.43956190  1
  Pd  Pd2  1  0.65095268  0.25000000  0.56043810  1
  Pd  Pd3  1  0.65880734  0.75000000  0.79528622  1
  Pd  Pd4  1  0.90987170  0.12546510  0.45328785  1
  Pd  Pd5  1  0.09012830  0.62546510  0.54671215  1
  Pd  Pd6  1  0.34119266  0.25000000  0.20471378  1
  Pd  Pd7  1  0.90987170  0.37453490  0.45328785  1
  Pd  Pd8  1  0.60362783  0.12746941  0.09801026  1
  Pd  Pd9  1  0.39637217  0.62746941  0.90198974  1
  Pd  Pd10  1  0.39637217  0.87253059  0.90198974  1
  Pd  Pd11  1  0.09012830  0.87453490  0.54671215  1
  S  S12  1  0.91808076  0.33967008  0.20867076  1
  S  S13  1  0.36033693  0.97046157  0.67811066  1
  S  S14  1  0.91808076  0.16032992  0.20867076  1
  S  S15  1  0.08191924  0.66032992  0.79132924  1
  S  S16  1  0.08191924  0.83967008  0.79132924  1
  S  S17  1  0.54867778  0.87859732  0.59833930  1
  S  S18  1  0.45132222  0.37859732  0.40166070  1
  S  S19  1  0.63966307  0.47046157  0.32188934  1
  S  S20  1  0.54867778  0.62140268  0.59833930  1
  S  S21  1  0.63966307  0.02953843  0.32188934  1
  S  S22  1  0.36033693  0.52953843  0.67811066  1
  S  S23  1  0.45132222  0.12140268  0.40166070  1
  Cl  Cl24  1  0.58770765  0.25000000  0.88626389  1
  Cl  Cl25  1  0.72887112  0.60394434  0.98594218  1
  Cl  Cl26  1  0.27112888  0.10394434  0.01405782  1
  Cl  Cl27  1  0.41229235  0.75000000  0.11373611  1
  Cl  Cl28  1  0.72887112  0.89605566  0.98594218  1
  Cl  Cl29  1  0.16818966  0.25000000  0.56807491  1
  Cl  Cl30  1  0.14026535  0.89708361  0.30442593  1
  Cl  Cl31  1  0.14026535  0.60291639  0.30442593  1
  Cl  Cl32  1  0.85973465  0.10291639  0.69557407  1
  Cl  Cl33  1  0.85973465  0.39708361  0.69557407  1
  Cl  Cl34  1  0.83181034  0.75000000  0.43192509  1
  Cl  Cl35  1  0.27112888  0.39605566  0.01405782  1
