# generated using pymatgen
data_HfTe3
_symmetry_space_group_name_H-M   'P 1'
_cell_length_a   3.92158613
_cell_length_b   5.96668878
_cell_length_c   10.22152729
_cell_angle_alpha   97.77476706
_cell_angle_beta   90.00000000
_cell_angle_gamma   90.00000000
_symmetry_Int_Tables_number   1
_chemical_formula_structural   HfTe3
_chemical_formula_sum   'Hf2 Te6'
_cell_volume   236.97374256
_cell_formula_units_Z   2
loop_
 _symmetry_equiv_pos_site_id
 _symmetry_equiv_pos_as_xyz
  1  'x, y, z'
loop_
 _atom_site_type_symbol
 _atom_site_label
 _atom_site_symmetry_multiplicity
 _atom_site_fract_x
 _atom_site_fract_y
 _atom_site_fract_z
 _atom_site_occupancy
  Hf  Hf0  1  0.75000000  0.71179956  0.83295769  1
  Hf  Hf1  1  0.25000000  0.28820044  0.16704331  1
  Te  Te2  1  0.75000000  0.56901995  0.32941572  1
  Te  Te3  1  0.25000000  0.43098005  0.67058428  1
  Te  Te4  1  0.75000000  0.23701666  0.94820741  1
  Te  Te5  1  0.25000000  0.76298334  0.05179259  1
  Te  Te6  1  0.75000000  0.08802083  0.33412850  1
  Te  Te7  1  0.25000000  0.91197917  0.66587150  1
