# generated using pymatgen
data_Sr2MnSO3
_symmetry_space_group_name_H-M   'P 1'
_cell_length_a   3.95310547
_cell_length_b   3.95310547
_cell_length_c   13.53918007
_cell_angle_alpha   90.00000000
_cell_angle_beta   90.00000000
_cell_angle_gamma   90.00000000
_symmetry_Int_Tables_number   1
_chemical_formula_structural   Sr2MnSO3
_chemical_formula_sum   'Sr4 Mn2 S2 O6'
_cell_volume   211.57734744
_cell_formula_units_Z   2
loop_
 _symmetry_equiv_pos_site_id
 _symmetry_equiv_pos_as_xyz
  1  'x, y, z'
loop_
 _atom_site_type_symbol
 _atom_site_label
 _atom_site_symmetry_multiplicity
 _atom_site_fract_x
 _atom_site_fract_y
 _atom_site_fract_z
 _atom_site_occupancy
  Sr  Sr0  1  0.50000000  0.00000000  0.13817471  1
  Sr  Sr1  1  0.00000000  0.50000000  0.86182529  1
  Sr  Sr2  1  0.50000000  0.00000000  0.40036214  1
  Sr  Sr3  1  0.00000000  0.50000000  0.59963786  1
  Mn  Mn4  1  0.00000000  0.50000000  0.27670739  1
  Mn  Mn5  1  0.50000000  0.00000000  0.72329261  1
  S  S6  1  0.00000000  0.50000000  0.09265225  1
  S  S7  1  0.50000000  0.00000000  0.90734775  1
  O  O8  1  0.50000000  0.50000000  0.27259329  1
  O  O9  1  0.00000000  0.00000000  0.27259329  1
  O  O10  1  0.00000000  0.00000000  0.72740671  1
  O  O11  1  0.50000000  0.50000000  0.72740671  1
  O  O12  1  0.00000000  0.50000000  0.41637847  1
  O  O13  1  0.50000000  0.00000000  0.58362153  1
