# generated using pymatgen
data_ScIO
_symmetry_space_group_name_H-M   'P 1'
_cell_length_a   3.87251495
_cell_length_b   7.23284278
_cell_length_c   9.86289443
_cell_angle_alpha   93.38162265
_cell_angle_beta   101.31718311
_cell_angle_gamma   90.00064737
_symmetry_Int_Tables_number   1
_chemical_formula_structural   ScIO
_chemical_formula_sum   'Sc4 I4 O4'
_cell_volume   270.39058512
_cell_formula_units_Z   4
loop_
 _symmetry_equiv_pos_site_id
 _symmetry_equiv_pos_as_xyz
  1  'x, y, z'
loop_
 _atom_site_type_symbol
 _atom_site_label
 _atom_site_symmetry_multiplicity
 _atom_site_fract_x
 _atom_site_fract_y
 _atom_site_fract_z
 _atom_site_occupancy
  Sc  Sc0  1  0.29921385  0.38391483  0.59845991  1
  Sc  Sc1  1  0.69931520  0.11745806  0.39858854  1
  Sc  Sc2  1  0.70078615  0.61608517  0.40154009  1
  Sc  Sc3  1  0.30068480  0.88254194  0.60141146  1
  I  I4  1  0.10182492  0.35177484  0.20332920  1
  I  I5  1  0.41663024  0.15591618  0.83367240  1
  I  I6  1  0.58336976  0.84408382  0.16632760  1
  I  I7  1  0.89817508  0.64822516  0.79667080  1
  O  O8  1  0.24457321  0.62805924  0.48915233  1
  O  O9  1  0.75570741  0.87991327  0.51142766  1
  O  O10  1  0.75542679  0.37194076  0.51084767  1
  O  O11  1  0.24429259  0.12008673  0.48857234  1
