# generated using pymatgen
data_DySBr
_symmetry_space_group_name_H-M   'P 1'
_cell_length_a   4.06461198
_cell_length_b   5.36832620
_cell_length_c   7.99629353
_cell_angle_alpha   90.00000000
_cell_angle_beta   90.00000000
_cell_angle_gamma   90.00000000
_symmetry_Int_Tables_number   1
_chemical_formula_structural   DySBr
_chemical_formula_sum   'Dy2 S2 Br2'
_cell_volume   174.48042838
_cell_formula_units_Z   2
loop_
 _symmetry_equiv_pos_site_id
 _symmetry_equiv_pos_as_xyz
  1  'x, y, z'
loop_
 _atom_site_type_symbol
 _atom_site_label
 _atom_site_symmetry_multiplicity
 _atom_site_fract_x
 _atom_site_fract_y
 _atom_site_fract_z
 _atom_site_occupancy
  Dy  Dy0  1  0.00000000  0.00000000  0.14208847  1
  Dy  Dy1  1  0.50000000  0.50000000  0.85791153  1
  S  S2  1  0.50000000  0.00000000  0.91107250  1
  S  S3  1  0.00000000  0.50000000  0.08892750  1
  Br  Br4  1  0.00000000  0.50000000  0.61491721  1
  Br  Br5  1  0.50000000  0.00000000  0.38508279  1
