# generated using pymatgen
data_ZrNCl
_symmetry_space_group_name_H-M   'P 1'
_cell_length_a   9.50250426
_cell_length_b   9.50250417
_cell_length_c   9.50250460
_cell_angle_alpha   21.99133933
_cell_angle_beta   21.99134206
_cell_angle_gamma   21.99134174
_symmetry_Int_Tables_number   1
_chemical_formula_structural   ZrNCl
_chemical_formula_sum   'Zr2 N2 Cl2'
_cell_volume   105.47942736
_cell_formula_units_Z   2
loop_
 _symmetry_equiv_pos_site_id
 _symmetry_equiv_pos_as_xyz
  1  'x, y, z'
loop_
 _atom_site_type_symbol
 _atom_site_label
 _atom_site_symmetry_multiplicity
 _atom_site_fract_x
 _atom_site_fract_y
 _atom_site_fract_z
 _atom_site_occupancy
  Zr  Zr0  1  0.78587123  0.78587123  0.78587123  1
  Zr  Zr1  1  0.21412877  0.21412877  0.21412877  1
  N  N2  1  0.86437070  0.86437070  0.86437070  1
  N  N3  1  0.13562930  0.13562930  0.13562930  1
  Cl  Cl4  1  0.38759197  0.38759197  0.38759197  1
  Cl  Cl5  1  0.61240803  0.61240803  0.61240803  1
