# generated using pymatgen
data_Sr2Co(BrO)2
_symmetry_space_group_name_H-M   'P 1'
_cell_length_a   3.92362482
_cell_length_b   3.92362510
_cell_length_c   9.48186938
_cell_angle_alpha   101.94082563
_cell_angle_beta   101.94082283
_cell_angle_gamma   90.00000079
_symmetry_Int_Tables_number   1
_chemical_formula_structural   Sr2Co(BrO)2
_chemical_formula_sum   'Sr2 Co1 Br2 O2'
_cell_volume   139.58320866
_cell_formula_units_Z   1
loop_
 _symmetry_equiv_pos_site_id
 _symmetry_equiv_pos_as_xyz
  1  'x, y, z'
loop_
 _atom_site_type_symbol
 _atom_site_label
 _atom_site_symmetry_multiplicity
 _atom_site_fract_x
 _atom_site_fract_y
 _atom_site_fract_z
 _atom_site_occupancy
  Sr  Sr0  1  0.59633052  0.59632852  0.19265905  1
  Sr  Sr1  1  0.40366948  0.40367048  0.80734195  1
  Co  Co2  1  0.00000000  0.00000000  0.00000000  1
  Br  Br3  1  0.17842617  0.17842617  0.35685134  1
  Br  Br4  1  0.82157383  0.82157283  0.64314766  1
  O  O5  1  0.50000100  -0.00000000  0.00000000  1
  O  O6  1  0.99999900  0.50000000  -0.00000000  1
