# generated using pymatgen
data_P2Se5
_symmetry_space_group_name_H-M   'P 1'
_cell_length_a   5.75914955
_cell_length_b   20.37647712
_cell_length_c   7.00005252
_cell_angle_alpha   90.00000000
_cell_angle_beta   113.57054539
_cell_angle_gamma   90.00000000
_symmetry_Int_Tables_number   1
_chemical_formula_structural   P2Se5
_chemical_formula_sum   'P8 Se20'
_cell_volume   752.92834268
_cell_formula_units_Z   4
loop_
 _symmetry_equiv_pos_site_id
 _symmetry_equiv_pos_as_xyz
  1  'x, y, z'
loop_
 _atom_site_type_symbol
 _atom_site_label
 _atom_site_symmetry_multiplicity
 _atom_site_fract_x
 _atom_site_fract_y
 _atom_site_fract_z
 _atom_site_occupancy
  P  P0  1  0.72710555  0.66611377  0.73165307  1
  P  P1  1  0.77289445  0.16611377  0.26834693  1
  P  P2  1  0.27289445  0.33388623  0.26834693  1
  P  P3  1  0.22710555  0.83388623  0.73165307  1
  P  P4  1  0.29896236  0.54590948  0.72388892  1
  P  P5  1  0.20103764  0.04590948  0.27611108  1
  P  P6  1  0.70103764  0.45409052  0.27611108  1
  P  P7  1  0.79896236  0.95409052  0.72388892  1
  Se  Se8  1  0.84442381  0.89505294  0.01494739  1
  Se  Se9  1  0.63437850  0.69242564  0.01239009  1
  Se  Se10  1  0.86562150  0.19242564  -0.01239009  1
  Se  Se11  1  0.80048681  0.05322458  0.26779044  1
  Se  Se12  1  0.13437850  0.80757436  0.01239009  1
  Se  Se13  1  0.69951319  0.55322458  0.73220956  1
  Se  Se14  1  0.65557619  0.39505294  -0.01494739  1
  Se  Se15  1  0.36562150  0.30757436  -0.01239009  1
  Se  Se16  1  0.15557619  0.10494706  -0.01494739  1
  Se  Se17  1  0.43089986  0.10658369  0.56549211  1
  Se  Se18  1  0.56910014  0.89341631  0.43450789  1
  Se  Se19  1  0.93089986  0.39341631  0.56549211  1
  Se  Se20  1  0.30048681  0.44677542  0.26779044  1
  Se  Se21  1  0.06910014  0.60658369  0.43450789  1
  Se  Se22  1  0.86701457  0.80680353  0.44521955  1
  Se  Se23  1  0.63298543  0.30680353  0.55478045  1
  Se  Se24  1  0.13298543  0.19319647  0.55478045  1
  Se  Se25  1  0.36701457  0.69319647  0.44521955  1
  Se  Se26  1  0.34442381  0.60494706  0.01494739  1
  Se  Se27  1  0.19951319  0.94677542  0.73220956  1
