# generated using pymatgen
data_SmTe3
_symmetry_space_group_name_H-M   'P 1'
_cell_length_a   4.37796602
_cell_length_b   4.37921621
_cell_length_c   13.25650152
_cell_angle_alpha   90.00000000
_cell_angle_beta   99.50450780
_cell_angle_gamma   90.00000000
_symmetry_Int_Tables_number   1
_chemical_formula_structural   SmTe3
_chemical_formula_sum   'Sm2 Te6'
_cell_volume   250.66556329
_cell_formula_units_Z   2
loop_
 _symmetry_equiv_pos_site_id
 _symmetry_equiv_pos_as_xyz
  1  'x, y, z'
loop_
 _atom_site_type_symbol
 _atom_site_label
 _atom_site_symmetry_multiplicity
 _atom_site_fract_x
 _atom_site_fract_y
 _atom_site_fract_z
 _atom_site_occupancy
  Sm  Sm0  1  0.83031373  0.25000000  0.66062845  1
  Sm  Sm1  1  0.16968627  0.75000000  0.33937155  1
  Te  Te2  1  0.70565275  0.25000000  0.41130551  1
  Te  Te3  1  0.29434725  0.75000000  0.58869449  1
  Te  Te4  1  0.07248737  0.25000000  0.14497573  1
  Te  Te5  1  0.92751263  0.75000000  0.85502427  1
  Te  Te6  1  0.57257854  0.75000000  0.14515708  1
  Te  Te7  1  0.42742146  0.25000000  0.85484292  1
