# generated using pymatgen
data_SiAs3
_symmetry_space_group_name_H-M   'P 1'
_cell_length_a   6.05552550
_cell_length_b   6.05552508
_cell_length_c   5.19166967
_cell_angle_alpha   90.00000000
_cell_angle_beta   90.00000000
_cell_angle_gamma   120.00000227
_symmetry_Int_Tables_number   1
_chemical_formula_structural   SiAs3
_chemical_formula_sum   'Si2 As6'
_cell_volume   164.86987831
_cell_formula_units_Z   2
loop_
 _symmetry_equiv_pos_site_id
 _symmetry_equiv_pos_as_xyz
  1  'x, y, z'
loop_
 _atom_site_type_symbol
 _atom_site_label
 _atom_site_symmetry_multiplicity
 _atom_site_fract_x
 _atom_site_fract_y
 _atom_site_fract_z
 _atom_site_occupancy
  Si  Si0  1  0.33333400  0.66666700  0.75000200  1
  Si  Si1  1  0.66666800  0.33333500  0.25000200  1
  As  As2  1  0.18961913  0.37923827  0.25000200  1
  As  As3  1  0.62076073  0.81037987  0.25000200  1
  As  As4  1  0.18962013  0.81037987  0.25000200  1
  As  As5  1  0.81037987  0.62075973  0.75000200  1
  As  As6  1  0.37924027  0.18962013  0.75000200  1
  As  As7  1  0.81037987  0.18962013  0.75000200  1
