# generated using pymatgen
data_InGaS3
_symmetry_space_group_name_H-M   'P 1'
_cell_length_a   3.80462647
_cell_length_b   6.22032537
_cell_length_c   9.83542521
_cell_angle_alpha   90.00000000
_cell_angle_beta   101.15211937
_cell_angle_gamma   90.00000000
_symmetry_Int_Tables_number   1
_chemical_formula_structural   InGaS3
_chemical_formula_sum   'In2 Ga2 S6'
_cell_volume   228.37003858
_cell_formula_units_Z   2
loop_
 _symmetry_equiv_pos_site_id
 _symmetry_equiv_pos_as_xyz
  1  'x, y, z'
loop_
 _atom_site_type_symbol
 _atom_site_label
 _atom_site_symmetry_multiplicity
 _atom_site_fract_x
 _atom_site_fract_y
 _atom_site_fract_z
 _atom_site_occupancy
  In  In0  1  0.33392031  0.50333843  0.66784063  1
  In  In1  1  0.66607969  0.00333843  0.33215937  1
  Ga  Ga2  1  0.88626950  0.05640694  0.77253801  1
  Ga  Ga3  1  0.11373050  0.55640694  0.22746199  1
  S  S4  1  0.89876233  0.69570410  0.79752466  1
  S  S5  1  0.10123767  0.19570410  0.20247534  1
  S  S6  1  0.56352490  0.70817669  0.12704980  1
  S  S7  1  0.43647510  0.20817669  0.87295020  1
  S  S8  1  0.78000257  0.24227383  0.56000414  1
  S  S9  1  0.21999743  0.74227383  0.43999586  1
