# generated using pymatgen
data_MoO3
_symmetry_space_group_name_H-M   'P 1'
_cell_length_a   3.71185203
_cell_length_b   3.92201451
_cell_length_c   14.07505405
_cell_angle_alpha   90.00000000
_cell_angle_beta   90.00000000
_cell_angle_gamma   90.00000000
_symmetry_Int_Tables_number   1
_chemical_formula_structural   MoO3
_chemical_formula_sum   'Mo4 O12'
_cell_volume   204.90375737
_cell_formula_units_Z   4
loop_
 _symmetry_equiv_pos_site_id
 _symmetry_equiv_pos_as_xyz
  1  'x, y, z'
loop_
 _atom_site_type_symbol
 _atom_site_label
 _atom_site_symmetry_multiplicity
 _atom_site_fract_x
 _atom_site_fract_y
 _atom_site_fract_z
 _atom_site_occupancy
  Mo  Mo0  1  0.25000100  0.42619519  0.60365139  1
  Mo  Mo1  1  0.75000000  0.57380481  0.39634861  1
  Mo  Mo2  1  0.75000000  0.92619519  0.89634861  1
  Mo  Mo3  1  0.25000100  0.07380481  0.10365139  1
  O  O4  1  0.25000100  0.46638130  0.72237541  1
  O  O5  1  0.75000000  0.53361770  0.27762559  1
  O  O6  1  0.75000000  0.96638130  0.77762559  1
  O  O7  1  0.25000100  0.03361870  0.22237541  1
  O  O8  1  0.25000100  0.49995775  0.43409776  1
  O  O9  1  0.75000000  0.50004225  0.56590324  1
  O  O10  1  0.75000000  -0.00004225  0.06590324  1
  O  O11  1  0.25000100  0.00004225  0.93409676  1
  O  O12  1  0.25000100  0.98149437  0.58793179  1
  O  O13  1  0.75000000  0.48149437  0.91206721  1
  O  O14  1  0.75000000  0.01850563  0.41206721  1
  O  O15  1  0.25000100  0.51850563  0.08793179  1
