# generated using pymatgen
data_Cr3O8
_symmetry_space_group_name_H-M   'P 1'
_cell_length_a   5.62959872
_cell_length_b   5.62959856
_cell_length_c   8.86709624
_cell_angle_alpha   90.00000000
_cell_angle_beta   90.00000000
_cell_angle_gamma   120.00000091
_symmetry_Int_Tables_number   1
_chemical_formula_structural   Cr3O8
_chemical_formula_sum   'Cr6 O16'
_cell_volume   243.36992956
_cell_formula_units_Z   2
loop_
 _symmetry_equiv_pos_site_id
 _symmetry_equiv_pos_as_xyz
  1  'x, y, z'
loop_
 _atom_site_type_symbol
 _atom_site_label
 _atom_site_symmetry_multiplicity
 _atom_site_fract_x
 _atom_site_fract_y
 _atom_site_fract_z
 _atom_site_occupancy
  Cr  Cr0  1  0.66586255  0.83293177  0.25007214  1
  Cr  Cr1  1  0.83293277  0.16706923  0.75007214  1
  Cr  Cr2  1  0.16706923  0.33413845  0.25007214  1
  Cr  Cr3  1  0.83293077  0.66586255  0.75007214  1
  Cr  Cr4  1  0.33413845  0.16706923  0.75007214  1
  Cr  Cr5  1  0.16706923  0.83293177  0.25007214  1
  O  O6  1  0.97034205  0.48517153  0.85671143  1
  O  O7  1  0.33333300  0.66666600  0.13172806  1
  O  O8  1  0.00000000  0.00000000  0.86767127  1
  O  O9  1  0.00000000  0.00000000  0.36767127  1
  O  O10  1  0.51482747  0.02965695  0.85671143  1
  O  O11  1  0.48517253  0.97034405  0.35671043  1
  O  O12  1  0.02965695  0.51482747  0.35671043  1
  O  O13  1  0.30489757  0.15244829  0.14513199  1
  O  O14  1  0.15244829  0.84755271  0.64513099  1
  O  O15  1  0.48517153  0.51482747  0.35671043  1
  O  O16  1  0.84755171  0.69510243  0.14513199  1
  O  O17  1  0.15244829  0.30489857  0.64513099  1
  O  O18  1  0.69510243  0.84755271  0.64513099  1
  O  O19  1  0.84755271  0.15244829  0.14513199  1
  O  O20  1  0.51482747  0.48517153  0.85671143  1
  O  O21  1  0.66666700  0.33333400  0.63172806  1
