# generated using pymatgen
data_RbBiO2
_symmetry_space_group_name_H-M   'P 1'
_cell_length_a   5.77223067
_cell_length_b   5.77223087
_cell_length_c   6.09541939
_cell_angle_alpha   112.81402804
_cell_angle_beta   112.81403085
_cell_angle_gamma   91.20844629
_symmetry_Int_Tables_number   1
_chemical_formula_structural   RbBiO2
_chemical_formula_sum   'Rb2 Bi2 O4'
_cell_volume   169.00882020
_cell_formula_units_Z   2
loop_
 _symmetry_equiv_pos_site_id
 _symmetry_equiv_pos_as_xyz
  1  'x, y, z'
loop_
 _atom_site_type_symbol
 _atom_site_label
 _atom_site_symmetry_multiplicity
 _atom_site_fract_x
 _atom_site_fract_y
 _atom_site_fract_z
 _atom_site_occupancy
  Rb  Rb0  1  0.36915406  0.63084594  0.75000000  1
  Rb  Rb1  1  0.63084594  0.36915406  0.25000000  1
  Bi  Bi2  1  0.10078146  0.89921854  0.25000000  1
  Bi  Bi3  1  0.89921854  0.10078146  0.75000000  1
  O  O4  1  0.11994737  0.25113057  0.21297415  1
  O  O5  1  0.74886943  0.88005263  0.28702585  1
  O  O6  1  0.25113057  0.11994737  0.71297415  1
  O  O7  1  0.88005263  0.74886943  0.78702585  1
