# generated using pymatgen
data_Tl4SnS3
_symmetry_space_group_name_H-M   'P 1'
_cell_length_a   8.12585621
_cell_length_b   8.12585621
_cell_length_c   13.65665567
_cell_angle_alpha   90.00000000
_cell_angle_beta   90.00000000
_cell_angle_gamma   90.00000000
_symmetry_Int_Tables_number   1
_chemical_formula_structural   Tl4SnS3
_chemical_formula_sum   'Tl16 Sn4 S12'
_cell_volume   901.74268069
_cell_formula_units_Z   4
loop_
 _symmetry_equiv_pos_site_id
 _symmetry_equiv_pos_as_xyz
  1  'x, y, z'
loop_
 _atom_site_type_symbol
 _atom_site_label
 _atom_site_symmetry_multiplicity
 _atom_site_fract_x
 _atom_site_fract_y
 _atom_site_fract_z
 _atom_site_occupancy
  Tl  Tl0  1  0.14596618  0.15563334  0.60236670  1
  Tl  Tl1  1  0.85403382  0.15563334  0.10236670  1
  Tl  Tl2  1  0.14596618  0.84436666  0.10236670  1
  Tl  Tl3  1  0.15563334  0.85403382  0.39763330  1
  Tl  Tl4  1  0.84436666  0.14596618  0.39763330  1
  Tl  Tl5  1  0.34436666  0.35403382  0.10236670  1
  Tl  Tl6  1  0.64596618  0.65563334  0.39763330  1
  Tl  Tl7  1  0.35403382  0.34436666  0.39763330  1
  Tl  Tl8  1  0.65563334  0.64596618  0.10236670  1
  Tl  Tl9  1  0.64596618  0.34436666  0.89763330  1
  Tl  Tl10  1  0.35403382  0.65563334  0.89763330  1
  Tl  Tl11  1  0.34436666  0.64596618  0.60236670  1
  Tl  Tl12  1  0.65563334  0.35403382  0.60236670  1
  Tl  Tl13  1  0.15563334  0.14596618  0.89763330  1
  Tl  Tl14  1  0.85403382  0.84436666  0.60236670  1
  Tl  Tl15  1  0.84436666  0.85403382  0.89763330  1
  Sn  Sn16  1  0.50000000  0.00000000  0.74340581  1
  Sn  Sn17  1  0.00000000  0.50000000  0.75659419  1
  Sn  Sn18  1  0.00000000  0.50000000  0.25659419  1
  Sn  Sn19  1  0.50000000  0.00000000  0.24340581  1
  S  S20  1  0.00000000  0.50000000  0.57005391  1
  S  S21  1  0.66663042  0.33336958  0.25000000  1
  S  S22  1  0.50000000  0.00000000  0.42994609  1
  S  S23  1  0.16663042  0.16663042  0.25000000  1
  S  S24  1  0.83336958  0.83336958  0.25000000  1
  S  S25  1  0.16663042  0.83336958  0.75000000  1
  S  S26  1  0.83336958  0.16663042  0.75000000  1
  S  S27  1  0.33336958  0.33336958  0.75000000  1
  S  S28  1  0.66663042  0.66663042  0.75000000  1
  S  S29  1  0.00000000  0.50000000  0.07005391  1
  S  S30  1  0.33336958  0.66663042  0.25000000  1
  S  S31  1  0.50000000  0.00000000  0.92994609  1
