# generated using pymatgen
data_Ag3SI
_symmetry_space_group_name_H-M   'P 1'
_cell_length_a   4.78643634
_cell_length_b   4.59301572
_cell_length_c   17.05277503
_cell_angle_alpha   121.66310055
_cell_angle_beta   124.15103435
_cell_angle_gamma   90.00294798
_symmetry_Int_Tables_number   1
_chemical_formula_structural   Ag3SI
_chemical_formula_sum   'Ag6 S2 I2'
_cell_volume   239.83708262
_cell_formula_units_Z   2
loop_
 _symmetry_equiv_pos_site_id
 _symmetry_equiv_pos_as_xyz
  1  'x, y, z'
loop_
 _atom_site_type_symbol
 _atom_site_label
 _atom_site_symmetry_multiplicity
 _atom_site_fract_x
 _atom_site_fract_y
 _atom_site_fract_z
 _atom_site_occupancy
  Ag  Ag0  1  0.33845296  0.81450338  0.91001900  1
  Ag  Ag1  1  0.61252129  0.85715490  0.79195588  1
  Ag  Ag2  1  0.39461575  0.21328760  0.43313453  1
  Ag  Ag3  1  0.32608859  0.56371012  0.05860686  1
  Ag  Ag4  1  0.64844872  0.25520321  0.31500370  1
  Ag  Ag5  1  0.04160376  0.50630429  0.16637924  1
  S  S6  1  0.98004426  0.12105766  0.23287219  1
  S  S7  1  -0.00152711  0.94897700  0.99210785  1
  I  I8  1  0.95751293  -0.00203375  0.71374017  1
  I  I9  1  0.05223984  0.07183659  0.51118059  1
