# generated using pymatgen
data_DyBC
_symmetry_space_group_name_H-M   'P 1'
_cell_length_a   3.39207503
_cell_length_b   3.51915695
_cell_length_c   8.36991010
_cell_angle_alpha   90.00000000
_cell_angle_beta   101.69109140
_cell_angle_gamma   90.00000000
_symmetry_Int_Tables_number   1
_chemical_formula_structural   DyBC
_chemical_formula_sum   'Dy2 B2 C2'
_cell_volume   97.84088675
_cell_formula_units_Z   2
loop_
 _symmetry_equiv_pos_site_id
 _symmetry_equiv_pos_as_xyz
  1  'x, y, z'
loop_
 _atom_site_type_symbol
 _atom_site_label
 _atom_site_symmetry_multiplicity
 _atom_site_fract_x
 _atom_site_fract_y
 _atom_site_fract_z
 _atom_site_occupancy
  Dy  Dy0  1  0.14005677  0.00000000  0.28011454  1
  Dy  Dy1  1  0.85994323  0.00000000  0.71988546  1
  B  B2  1  0.71929882  0.50000000  0.43859765  1
  B  B3  1  0.28070118  0.50000000  0.56140235  1
  C  C4  1  0.37123331  0.50000000  0.74246662  1
  C  C5  1  0.62876669  0.50000000  0.25753338  1
