# generated using pymatgen
data_AlI3
_symmetry_space_group_name_H-M   'P 1'
_cell_length_a   9.61052594
_cell_length_b   6.03652757
_cell_length_c   11.91289050
_cell_angle_alpha   90.00000000
_cell_angle_beta   107.89647711
_cell_angle_gamma   90.00000000
_symmetry_Int_Tables_number   1
_chemical_formula_structural   AlI3
_chemical_formula_sum   'Al4 I12'
_cell_volume   657.67600473
_cell_formula_units_Z   4
loop_
 _symmetry_equiv_pos_site_id
 _symmetry_equiv_pos_as_xyz
  1  'x, y, z'
loop_
 _atom_site_type_symbol
 _atom_site_label
 _atom_site_symmetry_multiplicity
 _atom_site_fract_x
 _atom_site_fract_y
 _atom_site_fract_z
 _atom_site_occupancy
  Al  Al0  1  0.19666405  0.00148492  0.04878380  1
  Al  Al1  1  0.80333595  0.50148492  0.45121620  1
  Al  Al2  1  0.80333595  0.99851508  0.95121620  1
  Al  Al3  1  0.19666405  0.49851508  0.54878380  1
  I  I4  1  0.33199223  0.74895221  0.21182000  1
  I  I5  1  0.66800777  0.24895221  0.28818000  1
  I  I6  1  0.66800777  0.25104779  0.78818000  1
  I  I7  1  0.33199223  0.75104779  0.71182000  1
  I  I8  1  0.33021200  0.25536187  0.95196207  1
  I  I9  1  0.66978800  0.75536187  0.54803793  1
  I  I10  1  0.66978800  0.74463813  0.04803793  1
  I  I11  1  0.33021200  0.24463813  0.45196207  1
  I  I12  1  0.00068931  0.76864836  0.88109685  1
  I  I13  1  0.99931069  0.26864836  0.61890315  1
  I  I14  1  0.99931069  0.23135164  0.11890315  1
  I  I15  1  0.00068931  0.73135164  0.38109685  1
