# generated using pymatgen
data_CrP2S7
_symmetry_space_group_name_H-M   'P 1'
_cell_length_a   6.33398826
_cell_length_b   6.33398826
_cell_length_c   6.15611461
_cell_angle_alpha   85.06170444
_cell_angle_beta   94.93829556
_cell_angle_gamma   85.11035322
_symmetry_Int_Tables_number   1
_chemical_formula_structural   CrP2S7
_chemical_formula_sum   'Cr1 P2 S7'
_cell_volume   244.07926333
_cell_formula_units_Z   1
loop_
 _symmetry_equiv_pos_site_id
 _symmetry_equiv_pos_as_xyz
  1  'x, y, z'
loop_
 _atom_site_type_symbol
 _atom_site_label
 _atom_site_symmetry_multiplicity
 _atom_site_fract_x
 _atom_site_fract_y
 _atom_site_fract_z
 _atom_site_occupancy
  Cr  Cr0  1  0.49186277  0.49186277  0.00000000  1
  P  P1  1  0.04404310  0.65526788  0.07968091  1
  P  P2  1  0.65526788  0.04404310  0.92031909  1
  S  S3  1  0.14058052  0.50614743  0.81889494  1
  S  S4  1  0.53116925  0.80710264  0.76425102  1
  S  S5  1  0.31782614  0.63341214  0.28485846  1
  S  S6  1  0.99208713  0.99208713  0.00000000  1
  S  S7  1  0.63341214  0.31782614  0.71514154  1
  S  S8  1  0.80710264  0.53116925  0.23574898  1
  S  S9  1  0.50614743  0.14058052  0.18110506  1
