# generated using pymatgen
data_Nb2Te6I
_symmetry_space_group_name_H-M   'P 1'
_cell_length_a   9.31393049
_cell_length_b   13.55954305
_cell_length_c   9.76585495
_cell_angle_alpha   90.00000000
_cell_angle_beta   112.36239468
_cell_angle_gamma   90.00000000
_symmetry_Int_Tables_number   1
_chemical_formula_structural   Nb2Te6I
_chemical_formula_sum   'Nb8 Te24 I4'
_cell_volume   1140.60227473
_cell_formula_units_Z   4
loop_
 _symmetry_equiv_pos_site_id
 _symmetry_equiv_pos_as_xyz
  1  'x, y, z'
loop_
 _atom_site_type_symbol
 _atom_site_label
 _atom_site_symmetry_multiplicity
 _atom_site_fract_x
 _atom_site_fract_y
 _atom_site_fract_z
 _atom_site_occupancy
  Nb  Nb0  1  0.82468462  0.99296704  0.87058507  1
  Nb  Nb1  1  0.17531538  0.49296704  0.62941493  1
  Nb  Nb2  1  0.17531538  0.00703296  0.12941493  1
  Nb  Nb3  1  0.82468462  0.50703296  0.37058507  1
  Nb  Nb4  1  0.47578952  0.97497673  0.63180339  1
  Nb  Nb5  1  0.52421048  0.47497673  0.86819661  1
  Nb  Nb6  1  0.52421048  0.02502327  0.36819661  1
  Nb  Nb7  1  0.47578952  0.52502327  0.13180339  1
  Te  Te8  1  0.08511585  0.09038858  0.83848846  1
  Te  Te9  1  0.91488415  0.59038858  0.66151154  1
  Te  Te10  1  0.54513468  0.06865225  0.91130016  1
  Te  Te11  1  0.45486532  0.56865225  0.58869984  1
  Te  Te12  1  0.45486532  0.93134775  0.08869984  1
  Te  Te13  1  0.34866232  0.85575232  0.35902287  1
  Te  Te14  1  0.65133768  0.14424768  0.64097713  1
  Te  Te15  1  0.34866232  0.64424768  0.85902287  1
  Te  Te16  1  0.08511585  0.40961142  0.33848846  1
  Te  Te17  1  0.65133768  0.35575232  0.14097713  1
  Te  Te18  1  0.54513468  0.43134775  0.41130016  1
  Te  Te19  1  0.91488415  0.90961142  0.16151154  1
  Te  Te20  1  0.95582246  0.33244499  0.53277934  1
  Te  Te21  1  0.95582246  0.16755501  0.03277934  1
  Te  Te22  1  0.04417754  0.83244499  0.96722066  1
  Te  Te23  1  0.62340302  0.69274118  0.27431157  1
  Te  Te24  1  0.37659698  0.19274118  0.22568843  1
  Te  Te25  1  0.37659698  0.30725882  0.72568843  1
  Te  Te26  1  0.62340302  0.80725882  0.77431157  1
  Te  Te27  1  0.75891588  0.60196171  0.08858891  1
  Te  Te28  1  0.24108412  0.10196171  0.41141109  1
  Te  Te29  1  0.24108412  0.39803829  0.91141109  1
  Te  Te30  1  0.75891588  0.89803829  0.58858891  1
  Te  Te31  1  0.04417754  0.66755501  0.46722066  1
  I  I32  1  0.81297625  0.08424048  0.34565618  1
  I  I33  1  0.18702375  0.91575952  0.65434382  1
  I  I34  1  0.81297625  0.41575952  0.84565618  1
  I  I35  1  0.18702375  0.58424048  0.15434382  1
