# generated using pymatgen
data_Nb3SiTe6
_symmetry_space_group_name_H-M   'P 1'
_cell_length_a   6.44206138
_cell_length_b   11.66168051
_cell_length_c   14.23872012
_cell_angle_alpha   90.00000000
_cell_angle_beta   90.00000000
_cell_angle_gamma   90.00000000
_symmetry_Int_Tables_number   1
_chemical_formula_structural   Nb3SiTe6
_chemical_formula_sum   'Nb12 Si4 Te24'
_cell_volume   1069.68757343
_cell_formula_units_Z   4
loop_
 _symmetry_equiv_pos_site_id
 _symmetry_equiv_pos_as_xyz
  1  'x, y, z'
loop_
 _atom_site_type_symbol
 _atom_site_label
 _atom_site_symmetry_multiplicity
 _atom_site_fract_x
 _atom_site_fract_y
 _atom_site_fract_z
 _atom_site_occupancy
  Nb  Nb0  1  0.16879194  0.83510452  0.25000000  1
  Nb  Nb1  1  0.66879194  0.66489548  0.25000000  1
  Nb  Nb2  1  0.33120806  0.33510452  0.75000000  1
  Nb  Nb3  1  0.83120806  0.16489548  0.75000000  1
  Nb  Nb4  1  0.69593197  0.96788165  0.25000000  1
  Nb  Nb5  1  0.19593197  0.53211835  0.25000000  1
  Nb  Nb6  1  0.80406803  0.46788165  0.75000000  1
  Nb  Nb7  1  0.30406803  0.03211835  0.75000000  1
  Nb  Nb8  1  0.96914037  0.31205210  0.25000000  1
  Nb  Nb9  1  0.46914037  0.18794790  0.25000000  1
  Nb  Nb10  1  0.53085963  0.81205210  0.75000000  1
  Nb  Nb11  1  0.03085963  0.68794790  0.75000000  1
  Si  Si12  1  0.92450010  0.92521202  0.75000000  1
  Si  Si13  1  0.42450010  0.57478798  0.75000000  1
  Si  Si14  1  0.57549990  0.42521202  0.25000000  1
  Si  Si15  1  0.07549990  0.07478798  0.25000000  1
  Te  Te16  1  0.14479152  0.49769417  0.87903795  1
  Te  Te17  1  0.64479152  0.00230583  0.62096205  1
  Te  Te18  1  0.64479152  0.00230583  0.87903795  1
  Te  Te19  1  0.14479152  0.49769417  0.62096205  1
  Te  Te20  1  0.85520848  0.50230583  0.12096205  1
  Te  Te21  1  0.35520848  0.99769417  0.37903795  1
  Te  Te22  1  0.79642060  0.15631830  0.11733403  1
  Te  Te23  1  0.29642060  0.34368170  0.38266597  1
  Te  Te24  1  0.70357940  0.65631830  0.88266597  1
  Te  Te25  1  0.20357940  0.84368170  0.61733403  1
  Te  Te26  1  0.20357940  0.84368170  0.88266597  1
  Te  Te27  1  0.15108702  0.18208087  0.88413740  1
  Te  Te28  1  0.29642060  0.34368170  0.11733403  1
  Te  Te29  1  0.79642060  0.15631830  0.38266597  1
  Te  Te30  1  0.84891298  0.81791913  0.11586260  1
  Te  Te31  1  0.34891298  0.68208087  0.38413740  1
  Te  Te32  1  0.65108702  0.31791913  0.88413740  1
  Te  Te33  1  0.15108702  0.18208087  0.61586260  1
  Te  Te34  1  0.85520848  0.50230583  0.37903795  1
  Te  Te35  1  0.65108702  0.31791913  0.61586260  1
  Te  Te36  1  0.34891298  0.68208087  0.11586260  1
  Te  Te37  1  0.84891298  0.81791913  0.38413740  1
  Te  Te38  1  0.70357940  0.65631830  0.61733403  1
  Te  Te39  1  0.35520848  0.99769417  0.12096205  1
