# generated using pymatgen
data_Nb3Br8
_symmetry_space_group_name_H-M   'P 1'
_cell_length_a   13.67681535
_cell_length_b   13.67681495
_cell_length_c   13.67681475
_cell_angle_alpha   30.22697055
_cell_angle_beta   30.22697342
_cell_angle_gamma   30.22697451
_symmetry_Int_Tables_number   1
_chemical_formula_structural   Nb3Br8
_chemical_formula_sum   'Nb6 Br16'
_cell_volume   574.51449810
_cell_formula_units_Z   2
loop_
 _symmetry_equiv_pos_site_id
 _symmetry_equiv_pos_as_xyz
  1  'x, y, z'
loop_
 _atom_site_type_symbol
 _atom_site_label
 _atom_site_symmetry_multiplicity
 _atom_site_fract_x
 _atom_site_fract_y
 _atom_site_fract_z
 _atom_site_occupancy
  Nb  Nb0  1  0.55056613  0.14550458  0.55056613  1
  Nb  Nb1  1  0.14550458  0.55056613  0.55056613  1
  Nb  Nb2  1  0.85449542  0.44943387  0.44943387  1
  Nb  Nb3  1  0.44943387  0.85449542  0.44943387  1
  Nb  Nb4  1  0.44943387  0.44943387  0.85449542  1
  Nb  Nb5  1  0.55056613  0.55056613  0.14550458  1
  Br  Br6  1  0.62770855  0.11823864  0.11823864  1
  Br  Br7  1  0.37229145  0.88176136  0.88176136  1
  Br  Br8  1  0.88176136  0.88176136  0.37229145  1
  Br  Br9  1  0.88176136  0.37229145  0.88176136  1
  Br  Br10  1  0.70613815  0.70613815  0.20571264  1
  Br  Br11  1  0.63556315  0.63556315  0.63556315  1
  Br  Br12  1  0.79428736  0.29386185  0.29386185  1
  Br  Br13  1  0.29386185  0.29386185  0.79428736  1
  Br  Br14  1  0.29386185  0.79428736  0.29386185  1
  Br  Br15  1  0.11823864  0.62770855  0.11823864  1
  Br  Br16  1  0.11823864  0.11823864  0.62770855  1
  Br  Br17  1  0.21467794  0.21467794  0.21467794  1
  Br  Br18  1  0.78532206  0.78532206  0.78532206  1
  Br  Br19  1  0.36443685  0.36443685  0.36443685  1
  Br  Br20  1  0.20571264  0.70613815  0.70613815  1
  Br  Br21  1  0.70613815  0.20571264  0.70613815  1
