# generated using pymatgen
data_Ba4Sb2O
_symmetry_space_group_name_H-M   'P 1'
_cell_length_a   5.30237590
_cell_length_b   5.30237567
_cell_length_c   9.86696794
_cell_angle_alpha   105.58651703
_cell_angle_beta   105.58652003
_cell_angle_gamma   89.99999808
_symmetry_Int_Tables_number   1
_chemical_formula_structural   Ba4Sb2O
_chemical_formula_sum   'Ba4 Sb2 O1'
_cell_volume   256.60323608
_cell_formula_units_Z   1
loop_
 _symmetry_equiv_pos_site_id
 _symmetry_equiv_pos_as_xyz
  1  'x, y, z'
loop_
 _atom_site_type_symbol
 _atom_site_label
 _atom_site_symmetry_multiplicity
 _atom_site_fract_x
 _atom_site_fract_y
 _atom_site_fract_z
 _atom_site_occupancy
  Ba  Ba0  1  0.67042380  0.67042380  0.34084860  1
  Ba  Ba1  1  0.32957620  0.32957620  0.65915140  1
  Ba  Ba2  1  0.00000000  0.50000000  0.00000000  1
  Ba  Ba3  1  0.50000000  0.00000000  -0.00000000  1
  Sb  Sb4  1  0.86229100  0.86229100  0.72458101  1
  Sb  Sb5  1  0.13770900  0.13770900  0.27541899  1
  O  O6  1  0.50000000  0.50000000  -0.00000000  1
