# generated using pymatgen
data_SbAsO4
_symmetry_space_group_name_H-M   'P 1'
_cell_length_a   4.76380735
_cell_length_b   7.07841588
_cell_length_c   5.36653380
_cell_angle_alpha   90.00000000
_cell_angle_beta   95.12394719
_cell_angle_gamma   90.00000000
_symmetry_Int_Tables_number   1
_chemical_formula_structural   SbAsO4
_chemical_formula_sum   'Sb2 As2 O8'
_cell_volume   180.23749391
_cell_formula_units_Z   2
loop_
 _symmetry_equiv_pos_site_id
 _symmetry_equiv_pos_as_xyz
  1  'x, y, z'
loop_
 _atom_site_type_symbol
 _atom_site_label
 _atom_site_symmetry_multiplicity
 _atom_site_fract_x
 _atom_site_fract_y
 _atom_site_fract_z
 _atom_site_occupancy
  Sb  Sb0  1  0.18685411  0.75000000  0.66843283  1
  Sb  Sb1  1  0.81314589  0.25000000  0.33156717  1
  As  As2  1  0.70612319  0.75000000  0.11173227  1
  As  As3  1  0.29387681  0.25000000  0.88826773  1
  O  O4  1  0.81624977  0.56151559  0.29197144  1
  O  O5  1  0.18375023  0.06151559  0.70802856  1
  O  O6  1  0.18375023  0.43848441  0.70802856  1
  O  O7  1  0.81624977  0.93848441  0.29197144  1
  O  O8  1  0.79992206  0.75000000  0.80436518  1
  O  O9  1  0.20007794  0.25000000  0.19563482  1
  O  O10  1  0.34219424  0.75000000  0.04613773  1
  O  O11  1  0.65780576  0.25000000  0.95386227  1
