# generated using pymatgen
data_AlCl3
_symmetry_space_group_name_H-M   'P 1'
_cell_length_a   5.95686358
_cell_length_b   5.95686356
_cell_length_c   6.11577830
_cell_angle_alpha   99.17315648
_cell_angle_beta   99.17315020
_cell_angle_gamma   119.95230742
_symmetry_Int_Tables_number   1
_chemical_formula_structural   AlCl3
_chemical_formula_sum   'Al2 Cl6'
_cell_volume   178.23074093
_cell_formula_units_Z   2
loop_
 _symmetry_equiv_pos_site_id
 _symmetry_equiv_pos_as_xyz
  1  'x, y, z'
loop_
 _atom_site_type_symbol
 _atom_site_label
 _atom_site_symmetry_multiplicity
 _atom_site_fract_x
 _atom_site_fract_y
 _atom_site_fract_z
 _atom_site_occupancy
  Al  Al0  1  0.83346941  0.16653059  -0.00000000  1
  Al  Al1  1  0.16653059  0.83346941  0.00000000  1
  Cl  Cl2  1  0.78212992  0.78212992  0.76840729  1
  Cl  Cl3  1  0.21787008  0.21787008  0.23159271  1
  Cl  Cl4  1  0.57476874  0.93044322  0.22892451  1
  Cl  Cl5  1  0.06955678  0.42523126  0.77107549  1
  Cl  Cl6  1  0.42523126  0.06955678  0.77107549  1
  Cl  Cl7  1  0.93044322  0.57476874  0.22892451  1
