# generated using pymatgen
data_YCl3
_symmetry_space_group_name_H-M   'P 1'
_cell_length_a   6.32620315
_cell_length_b   6.83803312
_cell_length_c   6.83803379
_cell_angle_alpha   119.80082620
_cell_angle_beta   100.48811758
_cell_angle_gamma   100.48811667
_symmetry_Int_Tables_number   1
_chemical_formula_structural   YCl3
_chemical_formula_sum   'Y2 Cl6'
_cell_volume   239.18131679
_cell_formula_units_Z   2
loop_
 _symmetry_equiv_pos_site_id
 _symmetry_equiv_pos_as_xyz
  1  'x, y, z'
loop_
 _atom_site_type_symbol
 _atom_site_label
 _atom_site_symmetry_multiplicity
 _atom_site_fract_x
 _atom_site_fract_y
 _atom_site_fract_z
 _atom_site_occupancy
  Y  Y0  1  -0.00000000  0.16625915  0.83374185  1
  Y  Y1  1  0.00000000  0.83374185  0.16625915  1
  Cl  Cl2  1  0.24554985  0.93560144  0.58228924  1
  Cl  Cl3  1  0.75445015  0.41771076  0.06439856  1
  Cl  Cl4  1  0.74569400  0.77627993  0.77627993  1
  Cl  Cl5  1  0.25430600  0.22372007  0.22372007  1
  Cl  Cl6  1  0.24554985  0.58228924  0.93560144  1
  Cl  Cl7  1  0.75445015  0.06439856  0.41771076  1
