# generated using pymatgen
data_Ta2PdS6
_symmetry_space_group_name_H-M   'P 1'
_cell_length_a   3.28959383
_cell_length_b   6.20844757
_cell_length_c   9.34221920
_cell_angle_alpha   77.85751777
_cell_angle_beta   79.85961225
_cell_angle_gamma   74.63727632
_symmetry_Int_Tables_number   1
_chemical_formula_structural   Ta2PdS6
_chemical_formula_sum   'Ta2 Pd1 S6'
_cell_volume   178.39352595
_cell_formula_units_Z   1
loop_
 _symmetry_equiv_pos_site_id
 _symmetry_equiv_pos_as_xyz
  1  'x, y, z'
loop_
 _atom_site_type_symbol
 _atom_site_label
 _atom_site_symmetry_multiplicity
 _atom_site_fract_x
 _atom_site_fract_y
 _atom_site_fract_z
 _atom_site_occupancy
  Ta  Ta0  1  0.68441921  0.92463515  0.70652743  1
  Ta  Ta1  1  0.31558079  0.07536485  0.29347257  1
  Pd  Pd2  1  0.00000000  0.00000000  0.00000000  1
  S  S3  1  0.34001333  0.77985355  0.54011878  1
  S  S4  1  0.98774782  0.78377102  0.24073335  1
  S  S5  1  0.01225218  0.21622898  0.75926665  1
  S  S6  1  0.65998667  0.22014645  0.45988122  1
  S  S7  1  0.21813270  0.69216947  0.87156513  1
  S  S8  1  0.78186730  0.30783053  0.12843487  1
