# generated using pymatgen
data_TbH2Br
_symmetry_space_group_name_H-M   'P 1'
_cell_length_a   10.52986864
_cell_length_b   10.52986864
_cell_length_c   10.52986863
_cell_angle_alpha   20.65026918
_cell_angle_beta   20.65026918
_cell_angle_gamma   20.65026985
_symmetry_Int_Tables_number   1
_chemical_formula_structural   TbH2Br
_chemical_formula_sum   'Tb2 H4 Br2'
_cell_volume   127.11395198
_cell_formula_units_Z   2
loop_
 _symmetry_equiv_pos_site_id
 _symmetry_equiv_pos_as_xyz
  1  'x, y, z'
loop_
 _atom_site_type_symbol
 _atom_site_label
 _atom_site_symmetry_multiplicity
 _atom_site_fract_x
 _atom_site_fract_y
 _atom_site_fract_z
 _atom_site_occupancy
  Tb  Tb0  1  0.88554605  0.88554605  0.88554605  1
  Tb  Tb1  1  0.11445395  0.11445395  0.11445395  1
  H  H2  1  0.81331584  0.81331584  0.81331584  1
  H  H3  1  0.18668416  0.18668416  0.18668416  1
  H  H4  1  0.54582846  0.54582846  0.54582846  1
  H  H5  1  0.45417154  0.45417154  0.45417154  1
  Br  Br6  1  0.71816990  0.71816990  0.71816990  1
  Br  Br7  1  0.28183010  0.28183010  0.28183010  1
