# generated using pymatgen
data_TlPt2Se3
_symmetry_space_group_name_H-M   'P 1'
_cell_length_a   7.53387605
_cell_length_b   7.53387567
_cell_length_c   5.85370232
_cell_angle_alpha   90.00000000
_cell_angle_beta   90.00000000
_cell_angle_gamma   120.00000166
_symmetry_Int_Tables_number   1
_chemical_formula_structural   TlPt2Se3
_chemical_formula_sum   'Tl2 Pt4 Se6'
_cell_volume   287.73863427
_cell_formula_units_Z   2
loop_
 _symmetry_equiv_pos_site_id
 _symmetry_equiv_pos_as_xyz
  1  'x, y, z'
loop_
 _atom_site_type_symbol
 _atom_site_label
 _atom_site_symmetry_multiplicity
 _atom_site_fract_x
 _atom_site_fract_y
 _atom_site_fract_z
 _atom_site_occupancy
  Tl  Tl0  1  0.33333300  0.66666700  0.34915281  1
  Tl  Tl1  1  0.66666700  0.33333300  0.65084719  1
  Pt  Pt2  1  0.00000000  0.00000000  0.00000000  1
  Pt  Pt3  1  0.50000000  0.00000000  0.00000000  1
  Pt  Pt4  1  0.00000000  0.50000000  0.00000000  1
  Pt  Pt5  1  0.50000000  0.50000000  0.00000000  1
  Se  Se6  1  0.16925907  0.83074093  0.78303323  1
  Se  Se7  1  0.16925907  0.33851814  0.78303323  1
  Se  Se8  1  0.66148186  0.83074093  0.78303323  1
  Se  Se9  1  0.33851814  0.16925907  0.21696677  1
  Se  Se10  1  0.83074093  0.66148186  0.21696677  1
  Se  Se11  1  0.83074093  0.16925907  0.21696677  1
