# generated using pymatgen
data_AgCl
_symmetry_space_group_name_H-M   'P 1'
_cell_length_a   3.77505891
_cell_length_b   3.90097842
_cell_length_c   5.87843399
_cell_angle_alpha   90.00000000
_cell_angle_beta   108.72908685
_cell_angle_gamma   90.00000000
_symmetry_Int_Tables_number   1
_chemical_formula_structural   AgCl
_chemical_formula_sum   'Ag2 Cl2'
_cell_volume   81.98428991
_cell_formula_units_Z   2
loop_
 _symmetry_equiv_pos_site_id
 _symmetry_equiv_pos_as_xyz
  1  'x, y, z'
loop_
 _atom_site_type_symbol
 _atom_site_label
 _atom_site_symmetry_multiplicity
 _atom_site_fract_x
 _atom_site_fract_y
 _atom_site_fract_z
 _atom_site_occupancy
  Ag  Ag0  1  0.60333920  0.25000000  0.20667740  1
  Ag  Ag1  1  0.39666080  0.75000000  0.79332260  1
  Cl  Cl2  1  0.13551158  0.75000000  0.27102415  1
  Cl  Cl3  1  0.86448842  0.25000000  0.72897585  1
