# generated using pymatgen
data_RhBr3
_symmetry_space_group_name_H-M   'P 1'
_cell_length_a   6.34939242
_cell_length_b   6.34939195
_cell_length_c   6.34555461
_cell_angle_alpha   98.99400921
_cell_angle_beta   98.99401139
_cell_angle_gamma   120.01633789
_symmetry_Int_Tables_number   1
_chemical_formula_structural   RhBr3
_chemical_formula_sum   'Rh2 Br6'
_cell_volume   210.39864908
_cell_formula_units_Z   2
loop_
 _symmetry_equiv_pos_site_id
 _symmetry_equiv_pos_as_xyz
  1  'x, y, z'
loop_
 _atom_site_type_symbol
 _atom_site_label
 _atom_site_symmetry_multiplicity
 _atom_site_fract_x
 _atom_site_fract_y
 _atom_site_fract_z
 _atom_site_occupancy
  Rh  Rh0  1  0.83341984  0.16658016  -0.00000000  1
  Rh  Rh1  1  0.16658016  0.83341984  0.00000000  1
  Br  Br2  1  0.77591745  0.77591745  0.76431935  1
  Br  Br3  1  0.22408255  0.22408255  0.23568065  1
  Br  Br4  1  0.57253630  0.92144593  0.23335508  1
  Br  Br5  1  0.07855407  0.42746370  0.76664492  1
  Br  Br6  1  0.42746370  0.07855407  0.76664492  1
  Br  Br7  1  0.92144593  0.57253630  0.23335508  1
