# generated using pymatgen
data_Hg3(BO3)2
_symmetry_space_group_name_H-M   'P 1'
_cell_length_a   6.79640065
_cell_length_b   6.79640051
_cell_length_c   6.79640043
_cell_angle_alpha   84.05636089
_cell_angle_beta   84.05635875
_cell_angle_gamma   84.05636188
_symmetry_Int_Tables_number   1
_chemical_formula_structural   Hg3(BO3)2
_chemical_formula_sum   'Hg6 B4 O12'
_cell_volume   309.19650521
_cell_formula_units_Z   2
loop_
 _symmetry_equiv_pos_site_id
 _symmetry_equiv_pos_as_xyz
  1  'x, y, z'
loop_
 _atom_site_type_symbol
 _atom_site_label
 _atom_site_symmetry_multiplicity
 _atom_site_fract_x
 _atom_site_fract_y
 _atom_site_fract_z
 _atom_site_occupancy
  Hg  Hg0  1  0.60843540  0.89156460  0.25000000  1
  Hg  Hg1  1  0.89156460  0.25000000  0.60843540  1
  Hg  Hg2  1  0.39156460  0.10843540  0.75000000  1
  Hg  Hg3  1  0.75000000  0.39156460  0.10843540  1
  Hg  Hg4  1  0.10843540  0.75000000  0.39156460  1
  Hg  Hg5  1  0.25000000  0.60843540  0.89156460  1
  B  B6  1  0.11419077  0.11419077  0.11419077  1
  B  B7  1  0.38580923  0.38580923  0.38580923  1
  B  B8  1  0.61419077  0.61419077  0.61419077  1
  B  B9  1  0.88580923  0.88580923  0.88580923  1
  O  O10  1  0.78881289  0.53695083  0.51587124  1
  O  O11  1  0.51587124  0.78881289  0.53695083  1
  O  O12  1  0.53695083  0.51587124  0.78881289  1
  O  O13  1  0.71118711  0.98412876  0.96304917  1
  O  O14  1  0.03695083  0.28881289  0.01587124  1
  O  O15  1  0.01587124  0.03695083  0.28881289  1
  O  O16  1  0.48412876  0.21118711  0.46304917  1
  O  O17  1  0.46304917  0.48412876  0.21118711  1
  O  O18  1  0.21118711  0.46304917  0.48412876  1
  O  O19  1  0.96304917  0.71118711  0.98412876  1
  O  O20  1  0.98412876  0.96304917  0.71118711  1
  O  O21  1  0.28881289  0.01587124  0.03695083  1
