# generated using pymatgen
data_TmClO
_symmetry_space_group_name_H-M   'P 1'
_cell_length_a   3.72786632
_cell_length_b   9.49841642
_cell_length_c   3.72786713
_cell_angle_alpha   101.31695233
_cell_angle_beta   60.00000718
_cell_angle_gamma   101.31694811
_symmetry_Int_Tables_number   1
_chemical_formula_structural   TmClO
_chemical_formula_sum   'Tm2 Cl2 O2'
_cell_volume   111.34143132
_cell_formula_units_Z   2
loop_
 _symmetry_equiv_pos_site_id
 _symmetry_equiv_pos_as_xyz
  1  'x, y, z'
loop_
 _atom_site_type_symbol
 _atom_site_label
 _atom_site_symmetry_multiplicity
 _atom_site_fract_x
 _atom_site_fract_y
 _atom_site_fract_z
 _atom_site_occupancy
  Tm  Tm0  1  0.28259897  0.84779492  0.28259897  1
  Tm  Tm1  1  0.71740103  0.15220508  0.71740103  1
  Cl  Cl2  1  0.11269534  0.33808602  0.11269534  1
  Cl  Cl3  1  0.88730466  0.66191398  0.88730466  1
  O  O4  1  0.36347447  0.09042440  0.36347447  1
  O  O5  1  0.63652553  0.90957560  0.63652553  1
