# generated using pymatgen
data_Pd(Se4Cl)2
_symmetry_space_group_name_H-M   'P 1'
_cell_length_a   9.06707568
_cell_length_b   9.60139510
_cell_length_c   13.80540009
_cell_angle_alpha   90.00000000
_cell_angle_beta   90.00000000
_cell_angle_gamma   90.00000000
_symmetry_Int_Tables_number   1
_chemical_formula_structural   Pd(Se4Cl)2
_chemical_formula_sum   'Pd4 Se32 Cl8'
_cell_volume   1201.85086228
_cell_formula_units_Z   4
loop_
 _symmetry_equiv_pos_site_id
 _symmetry_equiv_pos_as_xyz
  1  'x, y, z'
loop_
 _atom_site_type_symbol
 _atom_site_label
 _atom_site_symmetry_multiplicity
 _atom_site_fract_x
 _atom_site_fract_y
 _atom_site_fract_z
 _atom_site_occupancy
  Pd  Pd0  1  0.50000000  0.00000000  0.00000000  1
  Pd  Pd1  1  0.50000000  0.50000000  0.50000000  1
  Pd  Pd2  1  0.00000000  0.50000000  0.00000000  1
  Pd  Pd3  1  0.00000000  0.00000000  0.50000000  1
  Se  Se4  1  0.08902966  0.38357125  0.37353454  1
  Se  Se5  1  0.41097034  0.88357125  0.62646546  1
  Se  Se6  1  0.58902966  0.61642875  0.12646546  1
  Se  Se7  1  0.70396706  0.48308875  0.38336256  1
  Se  Se8  1  0.58801719  0.31165846  0.27158682  1
  Se  Se9  1  0.41097034  0.38357125  0.87353454  1
  Se  Se10  1  0.08902966  0.88357125  0.12646546  1
  Se  Se11  1  0.91198281  0.31165846  0.77158682  1
  Se  Se12  1  0.37708961  0.15638111  0.47247056  1
  Se  Se13  1  0.12291039  0.65638111  0.52752944  1
  Se  Se14  1  0.79603294  0.48308875  0.88336256  1
  Se  Se15  1  0.62291039  0.84361889  0.52752944  1
  Se  Se16  1  0.58801719  0.81165846  0.22841318  1
  Se  Se17  1  0.08801719  0.68834154  0.22841318  1
  Se  Se18  1  0.79603294  0.98308875  0.61663744  1
  Se  Se19  1  0.41198281  0.68834154  0.72841318  1
  Se  Se20  1  0.41198281  0.18834154  0.77158682  1
  Se  Se21  1  0.29603294  0.01691125  0.88336256  1
  Se  Se22  1  0.12291039  0.15638111  0.97247056  1
  Se  Se23  1  0.91097034  0.61642875  0.62646546  1
  Se  Se24  1  0.20396706  0.51691125  0.11663744  1
  Se  Se25  1  0.87708961  0.34361889  0.47247056  1
  Se  Se26  1  0.87708961  0.84361889  0.02752944  1
  Se  Se27  1  0.37708961  0.65638111  0.02752944  1
  Se  Se28  1  0.58902966  0.11642875  0.37353454  1
  Se  Se29  1  0.08801719  0.18834154  0.27158682  1
  Se  Se30  1  0.20396706  0.01691125  0.38336256  1
  Se  Se31  1  0.91097034  0.11642875  0.87353454  1
  Se  Se32  1  0.29603294  0.51691125  0.61663744  1
  Se  Se33  1  0.91198281  0.81165846  0.72841318  1
  Se  Se34  1  0.62291039  0.34361889  0.97247056  1
  Se  Se35  1  0.70396706  0.98308875  0.11663744  1
  Cl  Cl36  1  0.39703357  0.65891077  0.39112007  1
  Cl  Cl37  1  0.89703357  0.34108923  0.10887993  1
  Cl  Cl38  1  0.89703357  0.84108923  0.39112007  1
  Cl  Cl39  1  0.10296643  0.15891077  0.60887993  1
  Cl  Cl40  1  0.39703357  0.15891077  0.10887993  1
  Cl  Cl41  1  0.60296643  0.34108923  0.60887993  1
  Cl  Cl42  1  0.10296643  0.65891077  0.89112007  1
  Cl  Cl43  1  0.60296643  0.84108923  0.89112007  1
