# generated using pymatgen
data_V2NiSe4
_symmetry_space_group_name_H-M   'P 1'
_cell_length_a   3.58225293
_cell_length_b   3.58190293
_cell_length_c   11.69549038
_cell_angle_alpha   89.97403297
_cell_angle_beta   90.00000000
_cell_angle_gamma   120.00323241
_symmetry_Int_Tables_number   1
_chemical_formula_structural   V2NiSe4
_chemical_formula_sum   'V2 Ni1 Se4'
_cell_volume   129.95856907
_cell_formula_units_Z   1
loop_
 _symmetry_equiv_pos_site_id
 _symmetry_equiv_pos_as_xyz
  1  'x, y, z'
loop_
 _atom_site_type_symbol
 _atom_site_label
 _atom_site_symmetry_multiplicity
 _atom_site_fract_x
 _atom_site_fract_y
 _atom_site_fract_z
 _atom_site_occupancy
  V  V0  1  0.99979149  0.99958398  0.25297456  1
  V  V1  1  0.00020851  0.00041602  0.74702544  1
  Ni  Ni2  1  0.00000000  0.00000000  0.00000000  1
  Se  Se3  1  0.66656660  0.33313220  0.11946701  1
  Se  Se4  1  0.33343340  0.66686780  0.88053299  1
  Se  Se5  1  0.33302635  0.66605270  0.37446660  1
  Se  Se6  1  0.66697365  0.33394730  0.62553340  1
