# generated using pymatgen
data_CrI2
_symmetry_space_group_name_H-M   'P 1'
_cell_length_a   4.07976784
_cell_length_b   4.08155941
_cell_length_c   7.07256329
_cell_angle_alpha   73.25464683
_cell_angle_beta   73.23647767
_cell_angle_gamma   60.01451394
_symmetry_Int_Tables_number   1
_chemical_formula_structural   CrI2
_chemical_formula_sum   'Cr1 I2'
_cell_volume   96.18964964
_cell_formula_units_Z   1
loop_
 _symmetry_equiv_pos_site_id
 _symmetry_equiv_pos_as_xyz
  1  'x, y, z'
loop_
 _atom_site_type_symbol
 _atom_site_label
 _atom_site_symmetry_multiplicity
 _atom_site_fract_x
 _atom_site_fract_y
 _atom_site_fract_z
 _atom_site_occupancy
  Cr  Cr0  1  0.00000000  0.00000000  0.00000000  1
  I  I1  1  0.74787270  0.74777925  0.75647535  1
  I  I2  1  0.25212730  0.25222075  0.24352465  1
