# generated using pymatgen
data_CrPS4
_symmetry_space_group_name_H-M   'P 1'
_cell_length_a   6.13539369
_cell_length_b   6.57063317
_cell_length_c   6.57063444
_cell_angle_alpha   67.29885140
_cell_angle_beta   88.16090156
_cell_angle_gamma   88.16090291
_symmetry_Int_Tables_number   1
_chemical_formula_structural   CrPS4
_chemical_formula_sum   'Cr2 P2 S8'
_cell_volume   244.18255920
_cell_formula_units_Z   2
loop_
 _symmetry_equiv_pos_site_id
 _symmetry_equiv_pos_as_xyz
  1  'x, y, z'
loop_
 _atom_site_type_symbol
 _atom_site_label
 _atom_site_symmetry_multiplicity
 _atom_site_fract_x
 _atom_site_fract_y
 _atom_site_fract_z
 _atom_site_occupancy
  Cr  Cr0  1  -0.00000000  0.25389771  0.74610229  1
  Cr  Cr1  1  0.00000000  0.74610229  0.25389771  1
  P  P2  1  0.83541294  0.29647441  0.29647441  1
  P  P3  1  0.16458706  0.70352559  0.70352559  1
  S  S4  1  0.29890668  0.39907140  0.86868468  1
  S  S5  1  0.70109332  0.13131532  0.60092860  1
  S  S6  1  0.70109332  0.60092860  0.13131532  1
  S  S7  1  0.29890668  0.86868468  0.39907140  1
  S  S8  1  0.80726761  0.10477304  0.10477304  1
  S  S9  1  0.19273239  0.89522696  0.89522696  1
  S  S10  1  0.85279346  0.62876571  0.62876571  1
  S  S11  1  0.14720654  0.37123429  0.37123429  1
