# generated using pymatgen
data_Ag3SnP7
_symmetry_space_group_name_H-M   'P 1'
_cell_length_a   6.43315008
_cell_length_b   6.59170994
_cell_length_c   11.19783581
_cell_angle_alpha   90.00000000
_cell_angle_beta   90.00000000
_cell_angle_gamma   108.29799951
_symmetry_Int_Tables_number   1
_chemical_formula_structural   Ag3SnP7
_chemical_formula_sum   'Ag6 Sn2 P14'
_cell_volume   450.83929639
_cell_formula_units_Z   2
loop_
 _symmetry_equiv_pos_site_id
 _symmetry_equiv_pos_as_xyz
  1  'x, y, z'
loop_
 _atom_site_type_symbol
 _atom_site_label
 _atom_site_symmetry_multiplicity
 _atom_site_fract_x
 _atom_site_fract_y
 _atom_site_fract_z
 _atom_site_occupancy
  Ag  Ag0  1  0.07237187  0.32534204  0.75000000  1
  Ag  Ag1  1  0.92762813  0.67465796  0.25000000  1
  Ag  Ag2  1  0.69024371  0.31685197  0.89769324  1
  Ag  Ag3  1  0.30975629  0.68314803  0.39769324  1
  Ag  Ag4  1  0.30975629  0.68314803  0.10230676  1
  Ag  Ag5  1  0.69024371  0.31685197  0.60230676  1
  Sn  Sn6  1  0.69188204  0.95970785  0.75000000  1
  Sn  Sn7  1  0.30811796  0.04029215  0.25000000  1
  P  P8  1  0.80311020  0.71589583  0.59022089  1
  P  P9  1  0.19688980  0.28410417  0.09022189  1
  P  P10  1  0.19688980  0.28410417  0.40977911  1
  P  P11  1  0.80311020  0.71589583  0.90977911  1
  P  P12  1  0.27862670  0.19562360  0.58997667  1
  P  P13  1  0.72137330  0.80437640  0.08997667  1
  P  P14  1  0.83341504  0.15959544  0.08025081  1
  P  P15  1  0.27862670  0.19562360  0.91002333  1
  P  P16  1  0.16658496  0.84040456  0.58025081  1
  P  P17  1  0.26934716  0.72342426  0.75000000  1
  P  P18  1  0.83341504  0.15959544  0.41974919  1
  P  P19  1  0.16658496  0.84040456  0.91974919  1
  P  P20  1  0.72137330  0.80437640  0.41002333  1
  P  P21  1  0.73065284  0.27657574  0.25000000  1
