# generated using pymatgen
data_YbClO
_symmetry_space_group_name_H-M   'P 1'
_cell_length_a   9.13202596
_cell_length_b   9.13202615
_cell_length_c   9.13202571
_cell_angle_alpha   24.20025624
_cell_angle_beta   24.20025388
_cell_angle_gamma   24.20025220
_symmetry_Int_Tables_number   1
_chemical_formula_structural   YbClO
_chemical_formula_sum   'Yb2 Cl2 O2'
_cell_volume   112.47355070
_cell_formula_units_Z   2
loop_
 _symmetry_equiv_pos_site_id
 _symmetry_equiv_pos_as_xyz
  1  'x, y, z'
loop_
 _atom_site_type_symbol
 _atom_site_label
 _atom_site_symmetry_multiplicity
 _atom_site_fract_x
 _atom_site_fract_y
 _atom_site_fract_z
 _atom_site_occupancy
  Yb  Yb0  1  0.38835898  0.38835898  0.38835898  1
  Yb  Yb1  1  0.61164027  0.61164027  0.61164027  1
  Cl  Cl2  1  0.11709659  0.11709659  0.11709659  1
  Cl  Cl3  1  0.88290441  0.88290441  0.88290441  1
  O  O4  1  0.30274436  0.30274436  0.30274436  1
  O  O5  1  0.69725539  0.69725539  0.69725539  1
