# generated using pymatgen
data_RbBrF4
_symmetry_space_group_name_H-M   'P 1'
_cell_length_a   6.98737879
_cell_length_b   6.98737804
_cell_length_c   6.82227705
_cell_angle_alpha   120.80382767
_cell_angle_beta   120.80382359
_cell_angle_gamma   89.99999742
_symmetry_Int_Tables_number   1
_chemical_formula_structural   RbBrF4
_chemical_formula_sum   'Rb2 Br2 F8'
_cell_volume   229.68690077
_cell_formula_units_Z   2
loop_
 _symmetry_equiv_pos_site_id
 _symmetry_equiv_pos_as_xyz
  1  'x, y, z'
loop_
 _atom_site_type_symbol
 _atom_site_label
 _atom_site_symmetry_multiplicity
 _atom_site_fract_x
 _atom_site_fract_y
 _atom_site_fract_z
 _atom_site_occupancy
  Rb  Rb0  1  0.50000000  0.50000000  0.00000000  1
  Rb  Rb1  1  0.00000000  0.00000000  0.00000000  1
  Br  Br2  1  0.50000000  -0.00000000  0.00000000  1
  Br  Br3  1  0.00000000  0.50000000  0.00000000  1
  F  F4  1  0.99206886  0.49206886  0.27650067  1
  F  F5  1  0.71556919  0.21556919  0.72349933  1
  F  F6  1  0.00793114  0.50793114  0.72349933  1
  F  F7  1  0.21556919  0.00793114  0.72349933  1
  F  F8  1  0.28443081  0.78443081  0.27650067  1
  F  F9  1  0.49206886  0.28443081  0.27650067  1
  F  F10  1  0.78443081  0.99206886  0.27650067  1
  F  F11  1  0.50793114  0.71556919  0.72349933  1
