# generated using pymatgen
data_Ca3SiBr2
_symmetry_space_group_name_H-M   'P 1'
_cell_length_a   4.33247620
_cell_length_b   5.89585333
_cell_length_c   7.60771258
_cell_angle_alpha   112.79854064
_cell_angle_beta   106.54249194
_cell_angle_gamma   90.00096437
_symmetry_Int_Tables_number   1
_chemical_formula_structural   Ca3SiBr2
_chemical_formula_sum   'Ca3 Si1 Br2'
_cell_volume   170.38727635
_cell_formula_units_Z   1
loop_
 _symmetry_equiv_pos_site_id
 _symmetry_equiv_pos_as_xyz
  1  'x, y, z'
loop_
 _atom_site_type_symbol
 _atom_site_label
 _atom_site_symmetry_multiplicity
 _atom_site_fract_x
 _atom_site_fract_y
 _atom_site_fract_z
 _atom_site_occupancy
  Ca  Ca0  1  0.35831449  0.35831302  0.71661372  1
  Ca  Ca1  1  0.00000000  0.00000000  0.00000000  1
  Ca  Ca2  1  0.64168551  0.64168698  0.28338628  1
  Si  Si3  1  -0.00000000  0.50000000  0.00000000  1
  Br  Br4  1  0.32017233  0.82013913  0.64027911  1
  Br  Br5  1  0.67982767  0.17986087  0.35972089  1
