# generated using pymatgen
data_Co(ClO4)2
_symmetry_space_group_name_H-M   'P 1'
_cell_length_a   7.59257920
_cell_length_b   7.59257895
_cell_length_c   7.59257937
_cell_angle_alpha   36.90552785
_cell_angle_beta   36.90552219
_cell_angle_gamma   36.90552516
_symmetry_Int_Tables_number   1
_chemical_formula_structural   Co(ClO4)2
_chemical_formula_sum   'Co1 Cl2 O8'
_cell_volume   141.39434397
_cell_formula_units_Z   1
loop_
 _symmetry_equiv_pos_site_id
 _symmetry_equiv_pos_as_xyz
  1  'x, y, z'
loop_
 _atom_site_type_symbol
 _atom_site_label
 _atom_site_symmetry_multiplicity
 _atom_site_fract_x
 _atom_site_fract_y
 _atom_site_fract_z
 _atom_site_occupancy
  Co  Co0  1  0.00000000  0.00000000  0.00000000  1
  Cl  Cl1  1  0.74898022  0.74898022  0.74898022  1
  Cl  Cl2  1  0.25101978  0.25101978  0.25101978  1
  O  O3  1  0.81559789  0.81559789  0.81559789  1
  O  O4  1  0.18440211  0.18440211  0.18440211  1
  O  O5  1  0.00529050  0.42999316  0.73795624  1
  O  O6  1  0.26204376  -0.00529050  0.57000684  1
  O  O7  1  0.57000684  0.26204376  -0.00529050  1
  O  O8  1  -0.00529050  0.57000684  0.26204376  1
  O  O9  1  0.73795624  0.00529050  0.42999316  1
  O  O10  1  0.42999316  0.73795624  0.00529050  1
