# generated using pymatgen
data_BiBr3
_symmetry_space_group_name_H-M   'P 1'
_cell_length_a   7.16734321
_cell_length_b   12.41696702
_cell_length_c   6.83856911
_cell_angle_alpha   90.00000000
_cell_angle_beta   110.24097404
_cell_angle_gamma   90.00000000
_symmetry_Int_Tables_number   1
_chemical_formula_structural   BiBr3
_chemical_formula_sum   'Bi4 Br12'
_cell_volume   571.02565510
_cell_formula_units_Z   4
loop_
 _symmetry_equiv_pos_site_id
 _symmetry_equiv_pos_as_xyz
  1  'x, y, z'
loop_
 _atom_site_type_symbol
 _atom_site_label
 _atom_site_symmetry_multiplicity
 _atom_site_fract_x
 _atom_site_fract_y
 _atom_site_fract_z
 _atom_site_occupancy
  Bi  Bi0  1  0.50034102  0.33364656  0.00027561  1
  Bi  Bi1  1  -0.00034102  0.83364656  -0.00027561  1
  Bi  Bi2  1  0.00034102  0.16635344  0.00027561  1
  Bi  Bi3  1  0.49965898  0.66635344  -0.00027561  1
  Br  Br4  1  0.24758998  0.16843906  0.74294881  1
  Br  Br5  1  0.25440487  0.49982197  0.73642048  1
  Br  Br6  1  0.25340613  0.33132815  0.25790850  1
  Br  Br7  1  0.24659387  0.83132815  0.74209150  1
  Br  Br8  1  0.24559513  -0.00017803  0.26357952  1
  Br  Br9  1  0.74758998  0.33156094  0.74294881  1
  Br  Br10  1  0.25241002  0.66843906  0.25705119  1
  Br  Br11  1  0.75440487  0.00017803  0.73642048  1
  Br  Br12  1  0.75340613  0.16867185  0.25790850  1
  Br  Br13  1  0.74659387  0.66867185  0.74209150  1
  Br  Br14  1  0.74559513  0.50017803  0.26357952  1
  Br  Br15  1  0.75241002  0.83156094  0.25705119  1
