# generated using pymatgen
data_TiBrN
_symmetry_space_group_name_H-M   'P 1'
_cell_length_a   3.37346410
_cell_length_b   3.94665119
_cell_length_c   8.35562245
_cell_angle_alpha   90.00000000
_cell_angle_beta   90.00000000
_cell_angle_gamma   90.00000000
_symmetry_Int_Tables_number   1
_chemical_formula_structural   TiBrN
_chemical_formula_sum   'Ti2 Br2 N2'
_cell_volume   111.24580587
_cell_formula_units_Z   2
loop_
 _symmetry_equiv_pos_site_id
 _symmetry_equiv_pos_as_xyz
  1  'x, y, z'
loop_
 _atom_site_type_symbol
 _atom_site_label
 _atom_site_symmetry_multiplicity
 _atom_site_fract_x
 _atom_site_fract_y
 _atom_site_fract_z
 _atom_site_occupancy
  Ti  Ti0  1  0.00000000  0.50000000  0.90969869  1
  Ti  Ti1  1  0.50000000  0.00000000  0.09030131  1
  Br  Br2  1  0.50000000  0.50000000  0.67175627  1
  Br  Br3  1  0.00000000  0.00000000  0.32824373  1
  N  N4  1  0.00000000  0.00000000  0.95789831  1
  N  N5  1  0.50000000  0.50000000  0.04210169  1
