# generated using pymatgen
data_InS
_symmetry_space_group_name_H-M   'P 1'
_cell_length_a   4.00189796
_cell_length_b   4.50578674
_cell_length_c   10.81574146
_cell_angle_alpha   90.00000000
_cell_angle_beta   90.00000000
_cell_angle_gamma   90.00000000
_symmetry_Int_Tables_number   1
_chemical_formula_structural   InS
_chemical_formula_sum   'In4 S4'
_cell_volume   195.02619181
_cell_formula_units_Z   4
loop_
 _symmetry_equiv_pos_site_id
 _symmetry_equiv_pos_as_xyz
  1  'x, y, z'
loop_
 _atom_site_type_symbol
 _atom_site_label
 _atom_site_symmetry_multiplicity
 _atom_site_fract_x
 _atom_site_fract_y
 _atom_site_fract_z
 _atom_site_occupancy
  In  In0  1  0.50000000  0.38020357  0.61995567  1
  In  In1  1  0.50000000  0.61979643  0.38004433  1
  In  In2  1  0.00000000  0.88020357  0.88004433  1
  In  In3  1  0.00000000  0.11979643  0.11995567  1
  S  S4  1  0.50000000  0.51908579  0.84823744  1
  S  S5  1  0.50000000  0.48091421  0.15176256  1
  S  S6  1  0.00000000  0.01908579  0.65176256  1
  S  S7  1  0.00000000  0.98091421  0.34823744  1
