# generated using pymatgen
data_Te2Pt
_symmetry_space_group_name_H-M   'P 1'
_cell_length_a   4.08097705
_cell_length_b   4.08097705
_cell_length_c   5.38227414
_cell_angle_alpha   90.00000000
_cell_angle_beta   90.00000000
_cell_angle_gamma   119.99999042
_symmetry_Int_Tables_number   1
_chemical_formula_structural   Te2Pt
_chemical_formula_sum   'Te2 Pt1'
_cell_volume   77.62914325
_cell_formula_units_Z   1
loop_
 _symmetry_equiv_pos_site_id
 _symmetry_equiv_pos_as_xyz
  1  'x, y, z'
loop_
 _atom_site_type_symbol
 _atom_site_label
 _atom_site_symmetry_multiplicity
 _atom_site_fract_x
 _atom_site_fract_y
 _atom_site_fract_z
 _atom_site_occupancy
  Te  Te0  1  0.33333300  0.66666700  0.25712550  1
  Te  Te1  1  0.66666700  0.33333300  0.74287450  1
  Pt  Pt2  1  0.00000000  0.00000000  0.00000000  1
