# generated using pymatgen
data_HfTe5
_symmetry_space_group_name_H-M   'P 1'
_cell_length_a   4.01257129
_cell_length_b   7.63624046
_cell_length_c   13.86150074
_cell_angle_alpha   90.00000000
_cell_angle_beta   90.00000000
_cell_angle_gamma   105.23223846
_symmetry_Int_Tables_number   1
_chemical_formula_structural   HfTe5
_chemical_formula_sum   'Hf2 Te10'
_cell_volume   409.80842296
_cell_formula_units_Z   2
loop_
 _symmetry_equiv_pos_site_id
 _symmetry_equiv_pos_as_xyz
  1  'x, y, z'
loop_
 _atom_site_type_symbol
 _atom_site_label
 _atom_site_symmetry_multiplicity
 _atom_site_fract_x
 _atom_site_fract_y
 _atom_site_fract_z
 _atom_site_occupancy
  Hf  Hf0  1  0.68566538  0.37133075  0.25000000  1
  Hf  Hf1  1  0.31433462  0.62866925  0.75000000  1
  Te  Te2  1  0.20908877  0.41817854  0.93424228  1
  Te  Te3  1  0.79091123  0.58182146  0.06575772  1
  Te  Te4  1  0.66396569  0.32793139  0.75000000  1
  Te  Te5  1  0.33603431  0.67206861  0.25000000  1
  Te  Te6  1  0.92767520  0.85535041  0.85088965  1
  Te  Te7  1  0.07232480  0.14464959  0.14911035  1
  Te  Te8  1  0.07232480  0.14464959  0.35088965  1
  Te  Te9  1  0.92767520  0.85535041  0.64911035  1
  Te  Te10  1  0.20908877  0.41817854  0.56575772  1
  Te  Te11  1  0.79091123  0.58182146  0.43424228  1
