# generated using pymatgen
data_AlBr3
_symmetry_space_group_name_H-M   'P 1'
_cell_length_a   7.48563177
_cell_length_b   6.89335809
_cell_length_c   10.06665055
_cell_angle_alpha   90.00000000
_cell_angle_beta   96.71527380
_cell_angle_gamma   90.00000000
_symmetry_Int_Tables_number   1
_chemical_formula_structural   AlBr3
_chemical_formula_sum   'Al4 Br12'
_cell_volume   515.88696248
_cell_formula_units_Z   4
loop_
 _symmetry_equiv_pos_site_id
 _symmetry_equiv_pos_as_xyz
  1  'x, y, z'
loop_
 _atom_site_type_symbol
 _atom_site_label
 _atom_site_symmetry_multiplicity
 _atom_site_fract_x
 _atom_site_fract_y
 _atom_site_fract_z
 _atom_site_occupancy
  Al  Al0  1  0.70229813  0.09610287  0.04960403  1
  Al  Al1  1  0.29770187  0.59610287  0.45039597  1
  Al  Al2  1  0.29770187  0.90389713  0.95039597  1
  Al  Al3  1  0.70229813  0.40389713  0.54960403  1
  Br  Br4  1  0.91164913  0.91134405  0.16978148  1
  Br  Br5  1  0.08835087  0.41134405  0.33021852  1
  Br  Br6  1  0.08835087  0.08865595  0.83021852  1
  Br  Br7  1  0.91164913  0.58865595  0.66978148  1
  Br  Br8  1  0.75113144  0.41059905  0.00572441  1
  Br  Br9  1  0.24886856  0.91059905  0.49427559  1
  Br  Br10  1  0.24886856  0.58940095  0.99427559  1
  Br  Br11  1  0.75113144  0.08940095  0.50572441  1
  Br  Br12  1  0.42190447  0.07132986  0.15347406  1
  Br  Br13  1  0.57809553  0.57132986  0.34652594  1
  Br  Br14  1  0.57809553  0.92867014  0.84652594  1
  Br  Br15  1  0.42190447  0.42867014  0.65347406  1
