# generated using pymatgen
data_Bi2Se3
_symmetry_space_group_name_H-M   'P 1'
_cell_length_a   10.02510767
_cell_length_b   10.02510770
_cell_length_c   10.02510766
_cell_angle_alpha   24.14924621
_cell_angle_beta   24.14924572
_cell_angle_gamma   24.14924255
_symmetry_Int_Tables_number   1
_chemical_formula_structural   Bi2Se3
_chemical_formula_sum   'Bi2 Se3'
_cell_volume   148.20631802
_cell_formula_units_Z   1
loop_
 _symmetry_equiv_pos_site_id
 _symmetry_equiv_pos_as_xyz
  1  'x, y, z'
loop_
 _atom_site_type_symbol
 _atom_site_label
 _atom_site_symmetry_multiplicity
 _atom_site_fract_x
 _atom_site_fract_y
 _atom_site_fract_z
 _atom_site_occupancy
  Bi  Bi0  1  0.39999552  0.39999552  0.39999552  1
  Bi  Bi1  1  0.60000448  0.60000448  0.60000448  1
  Se  Se2  1  0.00000000  0.00000000  0.00000000  1
  Se  Se3  1  0.21277249  0.21277249  0.21277249  1
  Se  Se4  1  0.78722751  0.78722751  0.78722751  1
