# generated using pymatgen
data_Te2Mo
_symmetry_space_group_name_H-M   'P 1'
_cell_length_a   6.37379514
_cell_length_b   3.52485441
_cell_length_c   14.11074901
_cell_angle_alpha   90.00000000
_cell_angle_beta   92.46700791
_cell_angle_gamma   90.00000000
_symmetry_Int_Tables_number   1
_chemical_formula_structural   Te2Mo
_chemical_formula_sum   'Te8 Mo4'
_cell_volume   316.72813900
_cell_formula_units_Z   4
loop_
 _symmetry_equiv_pos_site_id
 _symmetry_equiv_pos_as_xyz
  1  'x, y, z'
loop_
 _atom_site_type_symbol
 _atom_site_label
 _atom_site_symmetry_multiplicity
 _atom_site_fract_x
 _atom_site_fract_y
 _atom_site_fract_z
 _atom_site_occupancy
  Te  Te0  1  0.58362375  0.75000000  0.10311960  1
  Te  Te1  1  0.41637625  0.25000000  0.89688040  1
  Te  Te2  1  0.09124014  0.25000000  0.14708544  1
  Te  Te3  1  0.90875986  0.75000000  0.85291456  1
  Te  Te4  1  0.56561853  0.25000000  0.35310874  1
  Te  Te5  1  0.43438147  0.75000000  0.64689126  1
  Te  Te6  1  0.06304404  0.75000000  0.39670360  1
  Te  Te7  1  0.93695596  0.25000000  0.60329640  1
  Mo  Mo8  1  0.18037010  0.75000000  0.00745725  1
  Mo  Mo9  1  0.81962990  0.25000000  0.99254275  1
  Mo  Mo10  1  0.32096764  0.25000000  0.50698733  1
  Mo  Mo11  1  0.67903236  0.75000000  0.49301267  1
