# generated using pymatgen
data_GaSe
_symmetry_space_group_name_H-M   'P 1'
_cell_length_a   3.80682382
_cell_length_b   3.80682342
_cell_length_c   32.23712188
_cell_angle_alpha   90.00000000
_cell_angle_beta   90.00000000
_cell_angle_gamma   120.00000340
_symmetry_Int_Tables_number   1
_chemical_formula_structural   GaSe
_chemical_formula_sum   'Ga8 Se8'
_cell_volume   404.58743272
_cell_formula_units_Z   8
loop_
 _symmetry_equiv_pos_site_id
 _symmetry_equiv_pos_as_xyz
  1  'x, y, z'
loop_
 _atom_site_type_symbol
 _atom_site_label
 _atom_site_symmetry_multiplicity
 _atom_site_fract_x
 _atom_site_fract_y
 _atom_site_fract_z
 _atom_site_occupancy
  Ga  Ga0  1  0.33333300  0.66666700  0.21257008  1
  Ga  Ga1  1  0.00000000  0.00000000  0.53928533  1
  Ga  Ga2  1  0.66666700  0.33333300  0.71257008  1
  Ga  Ga3  1  0.00000000  0.00000000  0.03928533  1
  Ga  Ga4  1  0.33333300  0.66666700  0.28873904  1
  Ga  Ga5  1  0.66666700  0.33333300  0.78873904  1
  Ga  Ga6  1  0.00000000  0.00000000  0.96312553  1
  Ga  Ga7  1  0.00000000  0.00000000  0.46312553  1
  Se  Se8  1  0.00000000  0.00000000  0.67623560  1
  Se  Se9  1  0.66666700  0.33333300  0.92676340  1
  Se  Se10  1  0.66666700  0.33333300  0.07566454  1
  Se  Se11  1  0.00000000  0.00000000  0.32511749  1
  Se  Se12  1  0.00000000  0.00000000  0.17623560  1
  Se  Se13  1  0.33333300  0.66666700  0.57566454  1
  Se  Se14  1  0.00000000  0.00000000  0.82511749  1
  Se  Se15  1  0.33333300  0.66666700  0.42676340  1
