# generated using pymatgen
data_ClF
_symmetry_space_group_name_H-M   'P 1'
_cell_length_a   6.22721558
_cell_length_b   3.77930347
_cell_length_c   6.45154805
_cell_angle_alpha   90.00000000
_cell_angle_beta   104.71925278
_cell_angle_gamma   90.00000000
_symmetry_Int_Tables_number   1
_chemical_formula_structural   ClF
_chemical_formula_sum   'Cl4 F4'
_cell_volume   146.85136994
_cell_formula_units_Z   4
loop_
 _symmetry_equiv_pos_site_id
 _symmetry_equiv_pos_as_xyz
  1  'x, y, z'
loop_
 _atom_site_type_symbol
 _atom_site_label
 _atom_site_symmetry_multiplicity
 _atom_site_fract_x
 _atom_site_fract_y
 _atom_site_fract_z
 _atom_site_occupancy
  Cl  Cl0  1  0.83892944  0.49873003  0.20839007  1
  Cl  Cl1  1  0.16107056  0.99873003  0.29160993  1
  Cl  Cl2  1  0.16107056  0.50126997  0.79160993  1
  Cl  Cl3  1  0.83892944  0.00126997  0.70839007  1
  F  F4  1  0.62048616  0.21752799  0.15086097  1
  F  F5  1  0.37951384  0.71752799  0.34913903  1
  F  F6  1  0.37951384  0.78247201  0.84913903  1
  F  F7  1  0.62048616  0.28247201  0.65086097  1
