# generated using pymatgen
data_K2As2Pd
_symmetry_space_group_name_H-M   'P 1'
_cell_length_a   6.01441292
_cell_length_b   6.45509581
_cell_length_c   7.89360719
_cell_angle_alpha   114.13457328
_cell_angle_beta   90.00000000
_cell_angle_gamma   90.00000000
_symmetry_Int_Tables_number   1
_chemical_formula_structural   K2As2Pd
_chemical_formula_sum   'K4 As4 Pd2'
_cell_volume   279.67008653
_cell_formula_units_Z   2
loop_
 _symmetry_equiv_pos_site_id
 _symmetry_equiv_pos_as_xyz
  1  'x, y, z'
loop_
 _atom_site_type_symbol
 _atom_site_label
 _atom_site_symmetry_multiplicity
 _atom_site_fract_x
 _atom_site_fract_y
 _atom_site_fract_z
 _atom_site_occupancy
  K  K0  1  0.75000000  0.41781588  0.83563075  1
  K  K1  1  0.25000000  0.58218412  0.16436925  1
  K  K2  1  0.75000000  0.79589108  0.59178316  1
  K  K3  1  0.25000000  0.20410892  0.40821684  1
  As  As4  1  0.25000000  0.69604433  0.77243219  1
  As  As5  1  0.75000000  0.30395567  0.22756781  1
  As  As6  1  0.75000000  0.92361214  0.22756781  1
  As  As7  1  0.25000000  0.07638786  0.77243219  1
  Pd  Pd8  1  0.00000000  0.00000000  0.00000000  1
  Pd  Pd9  1  0.50000000  0.00000000  0.00000000  1
