# generated using pymatgen
data_NbI5
_symmetry_space_group_name_H-M   'P 1'
_cell_length_a   10.72054473
_cell_length_b   6.44224948
_cell_length_c   14.08593235
_cell_angle_alpha   90.00000000
_cell_angle_beta   109.45647820
_cell_angle_gamma   90.00000000
_symmetry_Int_Tables_number   1
_chemical_formula_structural   NbI5
_chemical_formula_sum   'Nb4 I20'
_cell_volume   917.28273832
_cell_formula_units_Z   4
loop_
 _symmetry_equiv_pos_site_id
 _symmetry_equiv_pos_as_xyz
  1  'x, y, z'
loop_
 _atom_site_type_symbol
 _atom_site_label
 _atom_site_symmetry_multiplicity
 _atom_site_fract_x
 _atom_site_fract_y
 _atom_site_fract_z
 _atom_site_occupancy
  Nb  Nb0  1  0.71792569  0.48749789  0.80051382  1
  Nb  Nb1  1  0.28207431  0.98749789  0.69948618  1
  Nb  Nb2  1  0.28207431  0.51250211  0.19948618  1
  Nb  Nb3  1  0.71792569  0.01250211  0.30051382  1
  I  I4  1  0.69057703  0.25975695  0.95456944  1
  I  I5  1  0.30942297  0.75975695  0.54543056  1
  I  I6  1  0.10519906  0.76373122  0.23431701  1
  I  I7  1  0.89480094  0.26373122  0.26568299  1
  I  I8  1  0.89480094  0.23626878  0.76568299  1
  I  I9  1  0.10519906  0.73626878  0.73431701  1
  I  I10  1  0.89019859  0.75152432  0.42931740  1
  I  I11  1  0.10980141  0.25152432  0.07068260  1
  I  I12  1  0.10980141  0.24847568  0.57068260  1
  I  I13  1  0.69390747  0.76088468  0.13992004  1
  I  I14  1  0.69057703  0.24024305  0.45456944  1
  I  I15  1  0.30609253  0.26088468  0.36007996  1
  I  I16  1  0.30609253  0.23911532  0.86007996  1
  I  I17  1  0.69390747  0.73911532  0.63992004  1
  I  I18  1  0.49995015  0.74466236  0.33544826  1
  I  I19  1  0.50004985  0.24466236  0.16455174  1
  I  I20  1  0.50004985  0.25533764  0.66455174  1
  I  I21  1  0.49995015  0.75533764  0.83544826  1
  I  I22  1  0.89019859  0.74847568  0.92931740  1
  I  I23  1  0.30942297  0.74024305  0.04543056  1
