# generated using pymatgen
data_CoO2
_symmetry_space_group_name_H-M   'P 1'
_cell_length_a   2.82298970
_cell_length_b   2.82290282
_cell_length_c   8.73994693
_cell_angle_alpha   80.71519336
_cell_angle_beta   80.74379785
_cell_angle_gamma   59.99959869
_symmetry_Int_Tables_number   1
_chemical_formula_structural   CoO2
_chemical_formula_sum   'Co2 O4'
_cell_volume   59.26468269
_cell_formula_units_Z   2
loop_
 _symmetry_equiv_pos_site_id
 _symmetry_equiv_pos_as_xyz
  1  'x, y, z'
loop_
 _atom_site_type_symbol
 _atom_site_label
 _atom_site_symmetry_multiplicity
 _atom_site_fract_x
 _atom_site_fract_y
 _atom_site_fract_z
 _atom_site_occupancy
  Co  Co0  1  0.00381435  0.99716572  -0.00076618  1
  Co  Co1  1  0.50355681  0.49754559  0.49927570  1
  O  O2  1  0.63466266  0.62769048  0.10742586  1
  O  O3  1  0.20607867  0.20039347  0.39097823  1
  O  O4  1  0.80103808  0.79469234  0.60757272  1
  O  O5  1  0.37296643  0.36664440  0.89103367  1
