# generated using pymatgen
data_SNCl
_symmetry_space_group_name_H-M   'P 1'
_cell_length_a   5.48936537
_cell_length_b   11.12985290
_cell_length_c   6.03197859
_cell_angle_alpha   90.00000000
_cell_angle_beta   99.41370722
_cell_angle_gamma   90.00000000
_symmetry_Int_Tables_number   1
_chemical_formula_structural   SNCl
_chemical_formula_sum   'S6 N6 Cl6'
_cell_volume   363.56577834
_cell_formula_units_Z   6
loop_
 _symmetry_equiv_pos_site_id
 _symmetry_equiv_pos_as_xyz
  1  'x, y, z'
loop_
 _atom_site_type_symbol
 _atom_site_label
 _atom_site_symmetry_multiplicity
 _atom_site_fract_x
 _atom_site_fract_y
 _atom_site_fract_z
 _atom_site_occupancy
  S  S0  1  0.94834362  0.87856174  0.77958995  1
  S  S1  1  0.05165638  0.37856174  0.22041005  1
  S  S2  1  0.05165638  0.12143826  0.22041005  1
  S  S3  1  0.94834362  0.62143826  0.77958995  1
  S  S4  1  0.12163307  0.75000000  0.18344923  1
  S  S5  1  0.87836693  0.25000000  0.81655077  1
  N  N6  1  0.11618019  0.25000000  0.33302231  1
  N  N7  1  0.88381981  0.75000000  0.66697769  1
  N  N8  1  0.02458450  0.63033951  0.04667249  1
  N  N9  1  0.97541550  0.13033951  0.95332751  1
  N  N10  1  0.97541550  0.36966049  0.95332751  1
  N  N11  1  0.02458450  0.86966049  0.04667249  1
  Cl  Cl12  1  0.30302457  0.92596814  0.66049763  1
  Cl  Cl13  1  0.69697543  0.42596814  0.33950237  1
  Cl  Cl14  1  0.69697543  0.07403186  0.33950237  1
  Cl  Cl15  1  0.30302457  0.57403186  0.66049763  1
  Cl  Cl16  1  0.50958563  0.75000000  0.17006954  1
  Cl  Cl17  1  0.49041437  0.25000000  0.82993046  1
