# generated using pymatgen
data_UBrO2
_symmetry_space_group_name_H-M   'P 1'
_cell_length_a   4.00752028
_cell_length_b   4.15008600
_cell_length_c   10.31527737
_cell_angle_alpha   101.60493187
_cell_angle_beta   90.00000000
_cell_angle_gamma   90.00000000
_symmetry_Int_Tables_number   1
_chemical_formula_structural   UBrO2
_chemical_formula_sum   'U2 Br2 O4'
_cell_volume   168.05206899
_cell_formula_units_Z   2
loop_
 _symmetry_equiv_pos_site_id
 _symmetry_equiv_pos_as_xyz
  1  'x, y, z'
loop_
 _atom_site_type_symbol
 _atom_site_label
 _atom_site_symmetry_multiplicity
 _atom_site_fract_x
 _atom_site_fract_y
 _atom_site_fract_z
 _atom_site_occupancy
  U  U0  1  0.25000000  0.07814650  0.15629401  1
  U  U1  1  0.75000000  0.92185350  0.84370599  1
  Br  Br2  1  0.75000000  0.18584603  0.37169207  1
  Br  Br3  1  0.25000000  0.81415397  0.62830793  1
  O  O4  1  0.25000000  0.57943876  0.15887751  1
  O  O5  1  0.75000000  0.42056124  0.84112249  1
  O  O6  1  0.75000000  0.03607102  0.07214303  1
  O  O7  1  0.25000000  0.96392898  0.92785697  1
