# generated using pymatgen
data_Pd(Se3Cl)2
_symmetry_space_group_name_H-M   'P 1'
_cell_length_a   4.34555554
_cell_length_b   8.58203946
_cell_length_c   12.94483426
_cell_angle_alpha   90.00000000
_cell_angle_beta   99.68638834
_cell_angle_gamma   90.00000000
_symmetry_Int_Tables_number   1
_chemical_formula_structural   Pd(Se3Cl)2
_chemical_formula_sum   'Pd2 Se12 Cl4'
_cell_volume   475.87864302
_cell_formula_units_Z   2
loop_
 _symmetry_equiv_pos_site_id
 _symmetry_equiv_pos_as_xyz
  1  'x, y, z'
loop_
 _atom_site_type_symbol
 _atom_site_label
 _atom_site_symmetry_multiplicity
 _atom_site_fract_x
 _atom_site_fract_y
 _atom_site_fract_z
 _atom_site_occupancy
  Pd  Pd0  1  -0.00000000  0.50000000  0.50000000  1
  Pd  Pd1  1  0.00000000  0.00000000  0.00000000  1
  Se  Se2  1  0.81743739  0.62042629  0.84920976  1
  Se  Se3  1  0.97934431  0.86478106  0.64401454  1
  Se  Se4  1  0.18761758  0.76819898  0.49272755  1
  Se  Se5  1  0.81238242  0.26819898  0.00727245  1
  Se  Se6  1  0.81238242  0.23180102  0.50727245  1
  Se  Se7  1  0.18761758  0.73180102  0.99272755  1
  Se  Se8  1  0.97934431  0.63521894  0.14401454  1
  Se  Se9  1  0.18256261  0.37957371  0.15079024  1
  Se  Se10  1  0.02065569  0.36478106  0.85598546  1
  Se  Se11  1  0.81743739  0.87957371  0.34920976  1
  Se  Se12  1  0.18256261  0.12042629  0.65079024  1
  Se  Se13  1  0.02065569  0.13521894  0.35598546  1
  Cl  Cl14  1  0.37517198  0.46656562  0.64968458  1
  Cl  Cl15  1  0.62482802  0.53343438  0.35031542  1
  Cl  Cl16  1  0.37517198  0.03343438  0.14968458  1
  Cl  Cl17  1  0.62482802  0.96656562  0.85031542  1
