# generated using pymatgen
data_As
_symmetry_space_group_name_H-M   'P 1'
_cell_length_a   3.73223061
_cell_length_b   4.60778770
_cell_length_c   5.90515031
_cell_angle_alpha   90.00000000
_cell_angle_beta   108.42208257
_cell_angle_gamma   90.00000000
_symmetry_Int_Tables_number   1
_chemical_formula_structural   As
_chemical_formula_sum   As4
_cell_volume   96.34865117
_cell_formula_units_Z   4
loop_
 _symmetry_equiv_pos_site_id
 _symmetry_equiv_pos_as_xyz
  1  'x, y, z'
loop_
 _atom_site_type_symbol
 _atom_site_label
 _atom_site_symmetry_multiplicity
 _atom_site_fract_x
 _atom_site_fract_y
 _atom_site_fract_z
 _atom_site_occupancy
  As  As0  1  0.89093189  0.93449645  0.78186478  1
  As  As1  1  0.10906811  0.06550355  0.21813522  1
  As  As2  1  0.60906811  0.43449645  0.21813522  1
  As  As3  1  0.39093189  0.56550355  0.78186478  1
