# generated using pymatgen
data_Re3Se4Cl
_symmetry_space_group_name_H-M   'P 1'
_cell_length_a   6.67649199
_cell_length_b   6.72152315
_cell_length_c   8.91174680
_cell_angle_alpha   76.69511779
_cell_angle_beta   70.03184245
_cell_angle_gamma   86.31059276
_symmetry_Int_Tables_number   1
_chemical_formula_structural   Re3Se4Cl
_chemical_formula_sum   'Re6 Se8 Cl2'
_cell_volume   365.74948781
_cell_formula_units_Z   2
loop_
 _symmetry_equiv_pos_site_id
 _symmetry_equiv_pos_as_xyz
  1  'x, y, z'
loop_
 _atom_site_type_symbol
 _atom_site_label
 _atom_site_symmetry_multiplicity
 _atom_site_fract_x
 _atom_site_fract_y
 _atom_site_fract_z
 _atom_site_occupancy
  Re  Re0  1  0.89305334  0.75440301  0.53667354  1
  Re  Re1  1  0.84068250  0.37114386  0.71846500  1
  Re  Re2  1  0.15931750  0.62885614  0.28153500  1
  Re  Re3  1  0.77389667  0.46220181  0.43039694  1
  Re  Re4  1  0.10694666  0.24559699  0.46332646  1
  Re  Re5  1  0.22610333  0.53779819  0.56960306  1
  Se  Se6  1  0.82970287  0.82822019  0.26269918  1
  Se  Se7  1  0.17029713  0.17177981  0.73730082  1
  Se  Se8  1  0.52301320  0.59330470  0.69096238  1
  Se  Se9  1  0.71300505  0.10017528  0.60814496  1
  Se  Se10  1  0.28699495  0.89982472  0.39185504  1
  Se  Se11  1  0.47698680  0.40669530  0.30903762  1
  Se  Se12  1  0.04157606  0.33841078  0.18933053  1
  Se  Se13  1  0.95842394  0.66158922  0.81066947  1
  Cl  Cl14  1  0.35846552  0.79151503  0.00962021  1
  Cl  Cl15  1  0.64153448  0.20848497  0.99037979  1
