# generated using pymatgen
data_Ba2ZrS4
_symmetry_space_group_name_H-M   'P 1'
_cell_length_a   4.97711399
_cell_length_b   4.97711390
_cell_length_c   8.67477557
_cell_angle_alpha   106.67082681
_cell_angle_beta   106.67082491
_cell_angle_gamma   90.00000452
_symmetry_Int_Tables_number   1
_chemical_formula_structural   Ba2ZrS4
_chemical_formula_sum   'Ba2 Zr1 S4'
_cell_volume   196.40960959
_cell_formula_units_Z   1
loop_
 _symmetry_equiv_pos_site_id
 _symmetry_equiv_pos_as_xyz
  1  'x, y, z'
loop_
 _atom_site_type_symbol
 _atom_site_label
 _atom_site_symmetry_multiplicity
 _atom_site_fract_x
 _atom_site_fract_y
 _atom_site_fract_z
 _atom_site_occupancy
  Ba  Ba0  1  0.64187301  0.64187301  0.28374702  1
  Ba  Ba1  1  0.35812699  0.35812699  0.71625298  1
  Zr  Zr2  1  0.00000000  0.00000000  0.00000000  1
  S  S3  1  0.00000000  0.50000000  -0.00000000  1
  S  S4  1  0.50000000  0.00000000  -0.00000000  1
  S  S5  1  0.83653837  0.83653837  0.67307774  1
  S  S6  1  0.16346163  0.16346163  0.32692226  1
