# generated using pymatgen
data_TaI2O
_symmetry_space_group_name_H-M   'P 1'
_cell_length_a   3.89676429
_cell_length_b   7.49867290
_cell_length_c   8.00314745
_cell_angle_alpha   104.84052462
_cell_angle_beta   104.09037471
_cell_angle_gamma   89.99999873
_symmetry_Int_Tables_number   1
_chemical_formula_structural   TaI2O
_chemical_formula_sum   'Ta2 I4 O2'
_cell_volume   218.76877884
_cell_formula_units_Z   2
loop_
 _symmetry_equiv_pos_site_id
 _symmetry_equiv_pos_as_xyz
  1  'x, y, z'
loop_
 _atom_site_type_symbol
 _atom_site_label
 _atom_site_symmetry_multiplicity
 _atom_site_fract_x
 _atom_site_fract_y
 _atom_site_fract_z
 _atom_site_occupancy
  Ta  Ta0  1  0.00045670  0.29382927  0.00091241  1
  Ta  Ta1  1  0.99954330  0.70617073  0.99908759  1
  I  I2  1  0.87331847  0.93184095  0.74663793  1
  I  I3  1  0.12668153  0.06815905  0.25336207  1
  I  I4  1  0.84514946  0.41332756  0.69029892  1
  I  I5  1  0.15485054  0.58667244  0.30970108  1
  O  O6  1  0.50074143  0.28702143  0.00148286  1
  O  O7  1  0.49925857  0.71297857  0.99851714  1
