# generated using pymatgen
data_TaTe5Pt
_symmetry_space_group_name_H-M   'P 1'
_cell_length_a   3.78228333
_cell_length_b   7.06037173
_cell_length_c   15.68789056
_cell_angle_alpha   90.00000000
_cell_angle_beta   90.00000000
_cell_angle_gamma   105.53654698
_symmetry_Int_Tables_number   1
_chemical_formula_structural   TaTe5Pt
_chemical_formula_sum   'Ta2 Te10 Pt2'
_cell_volume   403.62659451
_cell_formula_units_Z   2
loop_
 _symmetry_equiv_pos_site_id
 _symmetry_equiv_pos_as_xyz
  1  'x, y, z'
loop_
 _atom_site_type_symbol
 _atom_site_label
 _atom_site_symmetry_multiplicity
 _atom_site_fract_x
 _atom_site_fract_y
 _atom_site_fract_z
 _atom_site_occupancy
  Ta  Ta0  1  0.48900706  0.97801312  0.75000000  1
  Ta  Ta1  1  0.51099294  0.02198688  0.25000000  1
  Te  Te2  1  0.83165386  0.66330872  0.75000000  1
  Te  Te3  1  0.16834614  0.33669128  0.25000000  1
  Te  Te4  1  0.60949078  0.21898156  0.08038393  1
  Te  Te5  1  0.39050922  0.78101844  0.91961607  1
  Te  Te6  1  0.10039100  0.20078299  0.85139932  1
  Te  Te7  1  0.89960900  0.79921701  0.14860068  1
  Te  Te8  1  0.89960900  0.79921701  0.35139932  1
  Te  Te9  1  0.10039100  0.20078299  0.64860068  1
  Te  Te10  1  0.60949078  0.21898156  0.41961607  1
  Te  Te11  1  0.39050922  0.78101844  0.58038393  1
  Pt  Pt12  1  0.00000000  0.00000000  0.00000000  1
  Pt  Pt13  1  0.00000000  0.00000000  0.50000000  1
