# generated using pymatgen
data_VOF
_symmetry_space_group_name_H-M   'P 1'
_cell_length_a   3.39077124
_cell_length_b   3.39083235
_cell_length_c   6.21843242
_cell_angle_alpha   74.17990184
_cell_angle_beta   90.00009554
_cell_angle_gamma   60.00083729
_symmetry_Int_Tables_number   1
_chemical_formula_structural   VOF
_chemical_formula_sum   'V2 O2 F2'
_cell_volume   58.77058848
_cell_formula_units_Z   2
loop_
 _symmetry_equiv_pos_site_id
 _symmetry_equiv_pos_as_xyz
  1  'x, y, z'
loop_
 _atom_site_type_symbol
 _atom_site_label
 _atom_site_symmetry_multiplicity
 _atom_site_fract_x
 _atom_site_fract_y
 _atom_site_fract_z
 _atom_site_occupancy
  V  V0  1  0.76011005  0.47977990  0.28028256  1
  V  V1  1  0.23988995  0.52022010  0.71971844  1
  O  O2  1  0.87508912  0.24982477  0.62527821  1
  O  O3  1  0.12491088  0.75017523  0.37472179  1
  F  F4  1  0.62714656  0.74570689  0.88147428  1
  F  F5  1  0.37285344  0.25429311  0.11852572  1
