# generated using pymatgen
data_RuBr3
_symmetry_space_group_name_H-M   'P 1'
_cell_length_a   5.88576373
_cell_length_b   6.45182864
_cell_length_c   11.17419164
_cell_angle_alpha   90.00000000
_cell_angle_beta   90.00000000
_cell_angle_gamma   90.00000000
_symmetry_Int_Tables_number   1
_chemical_formula_structural   RuBr3
_chemical_formula_sum   'Ru4 Br12'
_cell_volume   424.32807207
_cell_formula_units_Z   4
loop_
 _symmetry_equiv_pos_site_id
 _symmetry_equiv_pos_as_xyz
  1  'x, y, z'
loop_
 _atom_site_type_symbol
 _atom_site_label
 _atom_site_symmetry_multiplicity
 _atom_site_fract_x
 _atom_site_fract_y
 _atom_site_fract_z
 _atom_site_occupancy
  Ru  Ru0  1  0.75000477  0.25003150  0.50000000  1
  Ru  Ru1  1  0.25000477  0.74996850  0.00000000  1
  Ru  Ru2  1  0.24999523  0.25003150  0.50000000  1
  Ru  Ru3  1  0.74999523  0.74996850  0.00000000  1
  Br  Br4  1  0.00000000  0.93409528  0.50000000  1
  Br  Br5  1  0.50000000  0.06590472  0.00000000  1
  Br  Br6  1  0.50000000  0.56595539  0.50000000  1
  Br  Br7  1  0.00000000  0.43404461  0.00000000  1
  Br  Br8  1  0.00000000  0.40797559  0.34202151  1
  Br  Br9  1  0.50000000  0.59202441  0.15797849  1
  Br  Br10  1  0.00000000  0.40797559  0.65797849  1
  Br  Br11  1  0.50000000  0.59202441  0.84202151  1
  Br  Br12  1  0.00000000  0.90793352  0.15796861  1
  Br  Br13  1  0.50000000  0.09206648  0.34203139  1
  Br  Br14  1  0.00000000  0.90793352  0.84203139  1
  Br  Br15  1  0.50000000  0.09206648  0.65796861  1
