# generated using pymatgen
data_SbSI
_symmetry_space_group_name_H-M   'P 1'
_cell_length_a   3.79995068
_cell_length_b   6.05632126
_cell_length_c   17.21158823
_cell_angle_alpha   90.00000000
_cell_angle_beta   90.00000000
_cell_angle_gamma   90.00000000
_symmetry_Int_Tables_number   1
_chemical_formula_structural   SbSI
_chemical_formula_sum   'Sb4 S4 I4'
_cell_volume   396.10270867
_cell_formula_units_Z   4
loop_
 _symmetry_equiv_pos_site_id
 _symmetry_equiv_pos_as_xyz
  1  'x, y, z'
loop_
 _atom_site_type_symbol
 _atom_site_label
 _atom_site_symmetry_multiplicity
 _atom_site_fract_x
 _atom_site_fract_y
 _atom_site_fract_z
 _atom_site_occupancy
  Sb  Sb0  1  0.75025406  0.50032581  0.35821270  1
  Sb  Sb1  1  0.24974594  0.00032581  0.14178730  1
  Sb  Sb2  1  0.25025406  -0.00032581  0.64178730  1
  Sb  Sb3  1  0.74974594  0.49967419  0.85821270  1
  S  S4  1  0.74976085  0.00031273  0.04667591  1
  S  S5  1  0.24976085  0.49968727  0.95332409  1
  S  S6  1  0.75023915  0.99968727  0.54667591  1
  S  S7  1  0.25023915  0.50031273  0.45332409  1
  I  I8  1  0.25001308  0.50033070  0.17492594  1
  I  I9  1  0.75001308  0.99966930  0.82507406  1
  I  I10  1  0.74998692  0.00033070  0.32507406  1
  I  I11  1  0.24998692  0.49966930  0.67492594  1
