# generated using pymatgen
data_BaH2O3
_symmetry_space_group_name_H-M   'P 1'
_cell_length_a   3.92532312
_cell_length_b   5.84891642
_cell_length_c   6.33289209
_cell_angle_alpha   89.94964965
_cell_angle_beta   89.99968616
_cell_angle_gamma   89.99803078
_symmetry_Int_Tables_number   1
_chemical_formula_structural   BaH2O3
_chemical_formula_sum   'Ba2 H4 O6'
_cell_volume   145.39609671
_cell_formula_units_Z   2
loop_
 _symmetry_equiv_pos_site_id
 _symmetry_equiv_pos_as_xyz
  1  'x, y, z'
loop_
 _atom_site_type_symbol
 _atom_site_label
 _atom_site_symmetry_multiplicity
 _atom_site_fract_x
 _atom_site_fract_y
 _atom_site_fract_z
 _atom_site_occupancy
  Ba  Ba0  1  0.00001857  0.69414345  0.18368660  1
  Ba  Ba1  1  0.00004532  0.30575755  0.68399188  1
  H  H2  1  0.78971573  0.19075946  0.21470644  1
  H  H3  1  0.21026998  0.19076143  0.21470895  1
  H  H4  1  0.21024767  0.80916454  0.71404716  1
  H  H5  1  0.78967325  0.80917047  0.71402654  1
  O  O6  1  -0.00000243  0.18587901  0.11719900  1
  O  O7  1  -0.00002715  0.81400555  0.61655912  1
  O  O8  1  0.50001366  0.20268444  0.38629475  1
  O  O9  1  0.49997782  -0.20250288  0.88573340  1
  O  O10  1  0.50003959  0.45836682  0.42747338  1
  O  O11  1  0.50002800  0.54180917  0.92737178  1
