# generated using pymatgen
data_SnO2
_symmetry_space_group_name_H-M   'P 1'
_cell_length_a   4.64089557
_cell_length_b   4.64089566
_cell_length_c   4.64089457
_cell_angle_alpha   41.12996980
_cell_angle_beta   41.12996256
_cell_angle_gamma   41.12997128
_symmetry_Int_Tables_number   1
_chemical_formula_structural   SnO2
_chemical_formula_sum   'Sn1 O2'
_cell_volume   39.05213493
_cell_formula_units_Z   1
loop_
 _symmetry_equiv_pos_site_id
 _symmetry_equiv_pos_as_xyz
  1  'x, y, z'
loop_
 _atom_site_type_symbol
 _atom_site_label
 _atom_site_symmetry_multiplicity
 _atom_site_fract_x
 _atom_site_fract_y
 _atom_site_fract_z
 _atom_site_occupancy
  Sn  Sn0  1  0.50000200  0.49999900  0.50000000  1
  O  O1  1  0.75611730  0.75611430  0.75611530  1
  O  O2  1  0.24388570  0.24388270  0.24388370  1
