# generated using pymatgen
data_HfSe3
_symmetry_space_group_name_H-M   'P 1'
_cell_length_a   5.43105305
_cell_length_b   3.73606475
_cell_length_c   9.50373942
_cell_angle_alpha   90.00000000
_cell_angle_beta   97.50182732
_cell_angle_gamma   90.00000000
_symmetry_Int_Tables_number   1
_chemical_formula_structural   HfSe3
_chemical_formula_sum   'Hf2 Se6'
_cell_volume   191.18759134
_cell_formula_units_Z   2
loop_
 _symmetry_equiv_pos_site_id
 _symmetry_equiv_pos_as_xyz
  1  'x, y, z'
loop_
 _atom_site_type_symbol
 _atom_site_label
 _atom_site_symmetry_multiplicity
 _atom_site_fract_x
 _atom_site_fract_y
 _atom_site_fract_z
 _atom_site_occupancy
  Hf  Hf0  1  0.28548338  0.75000000  0.65701686  1
  Hf  Hf1  1  0.71451662  0.25000000  0.34298314  1
  Se  Se2  1  0.45190807  0.75000000  0.17467102  1
  Se  Se3  1  0.54809193  0.25000000  0.82532898  1
  Se  Se4  1  0.89235886  0.75000000  0.16945588  1
  Se  Se5  1  0.10764114  0.25000000  0.83054412  1
  Se  Se6  1  0.76259597  0.75000000  0.55324210  1
  Se  Se7  1  0.23740403  0.25000000  0.44675790  1
