# generated using pymatgen
data_SiP
_symmetry_space_group_name_H-M   'P 1'
_cell_length_a   3.55255113
_cell_length_b   10.52905623
_cell_length_c   13.75039992
_cell_angle_alpha   90.00000000
_cell_angle_beta   90.00000000
_cell_angle_gamma   99.71237419
_symmetry_Int_Tables_number   1
_chemical_formula_structural   SiP
_chemical_formula_sum   'Si12 P12'
_cell_volume   506.96193683
_cell_formula_units_Z   12
loop_
 _symmetry_equiv_pos_site_id
 _symmetry_equiv_pos_as_xyz
  1  'x, y, z'
loop_
 _atom_site_type_symbol
 _atom_site_label
 _atom_site_symmetry_multiplicity
 _atom_site_fract_x
 _atom_site_fract_y
 _atom_site_fract_z
 _atom_site_occupancy
  Si  Si0  1  0.17106513  0.34213026  0.73747872  1
  Si  Si1  1  0.79838079  0.59676157  0.66515384  1
  Si  Si2  1  0.20457780  0.40915760  0.33686789  1
  Si  Si3  1  0.79542220  0.59084240  0.83686789  1
  Si  Si4  1  0.56697185  0.13394370  0.35201059  1
  Si  Si5  1  0.43302815  0.86605630  0.85201059  1
  Si  Si6  1  0.20161921  0.40323843  0.16515384  1
  Si  Si7  1  0.43606020  0.87212239  0.68012316  1
  Si  Si8  1  0.93953654  0.87907308  0.27984728  1
  Si  Si9  1  0.06046346  0.12092692  0.77984728  1
  Si  Si10  1  0.82893487  0.65786974  0.23747872  1
  Si  Si11  1  0.56393980  0.12787761  0.18012316  1
  P  P12  1  0.31002552  0.62005204  0.13484242  1
  P  P13  1  0.68997448  0.37994796  0.63484242  1
  P  P14  1  0.45862834  0.91725669  0.38251994  1
  P  P15  1  0.54137166  0.08274331  0.88251994  1
  P  P16  1  0.65511857  0.31023614  0.08678439  1
  P  P17  1  0.76852985  0.53705871  0.37983344  1
  P  P18  1  0.23147015  0.46294129  0.87983344  1
  P  P19  1  -0.00015692  -0.00031284  0.13710527  1
  P  P20  1  0.00015692  0.00031284  0.63710527  1
  P  P21  1  0.88652881  0.77305762  0.93039306  1
  P  P22  1  0.34488143  0.68976386  0.58678439  1
  P  P23  1  0.11347119  0.22694238  0.43039306  1
