# generated using pymatgen
data_Al2Te3
_symmetry_space_group_name_H-M   'P 1'
_cell_length_a   7.26672081
_cell_length_b   12.94780730
_cell_length_c   14.37568449
_cell_angle_alpha   90.00000000
_cell_angle_beta   89.73597730
_cell_angle_gamma   90.00000000
_symmetry_Int_Tables_number   1
_chemical_formula_structural   Al2Te3
_chemical_formula_sum   'Al16 Te24'
_cell_volume   1352.56649018
_cell_formula_units_Z   8
loop_
 _symmetry_equiv_pos_site_id
 _symmetry_equiv_pos_as_xyz
  1  'x, y, z'
loop_
 _atom_site_type_symbol
 _atom_site_label
 _atom_site_symmetry_multiplicity
 _atom_site_fract_x
 _atom_site_fract_y
 _atom_site_fract_z
 _atom_site_occupancy
  Al  Al0  1  0.41839201  0.24966830  0.68653833  1
  Al  Al1  1  0.56907546  0.43178424  0.31757195  1
  Al  Al2  1  0.43092454  0.93178424  0.18242805  1
  Al  Al3  1  0.56907546  0.06821576  0.81757195  1
  Al  Al4  1  0.92023208  0.09227310  0.19384806  1
  Al  Al5  1  0.07976792  0.59227310  0.30615194  1
  Al  Al6  1  0.07976792  0.90772690  0.80615194  1
  Al  Al7  1  0.92023208  0.40772690  0.69384806  1
  Al  Al8  1  0.43092454  0.56821576  0.68242805  1
  Al  Al9  1  0.06919884  0.90877763  0.32597488  1
  Al  Al10  1  0.06919884  0.59122237  0.82597488  1
  Al  Al11  1  0.93080116  0.09122237  0.67402512  1
  Al  Al12  1  0.41839201  0.25033170  0.18653833  1
  Al  Al13  1  0.58160799  0.75033170  0.31346167  1
  Al  Al14  1  0.58160799  0.74966830  0.81346167  1
  Al  Al15  1  0.93080116  0.40877763  0.17402512  1
  Te  Te16  1  0.08840906  0.91880701  0.62691661  1
  Te  Te17  1  0.08840906  0.58119299  0.12691661  1
  Te  Te18  1  0.91159094  0.08119299  0.37308339  1
  Te  Te19  1  0.59515610  0.40580494  0.60254532  1
  Te  Te20  1  0.57356669  0.07206701  0.62907105  1
  Te  Te21  1  0.40484390  0.59419506  0.39745468  1
  Te  Te22  1  0.59515610  0.09419506  0.10254532  1
  Te  Te23  1  0.42643331  0.57206701  0.87092895  1
  Te  Te24  1  0.91159094  0.41880701  0.87308339  1
  Te  Te25  1  0.40484390  0.90580494  0.89745468  1
  Te  Te26  1  0.92627017  0.41382216  0.36226034  1
  Te  Te27  1  0.09065435  0.24295683  0.09872516  1
  Te  Te28  1  0.07372983  0.58617784  0.63773966  1
  Te  Te29  1  0.92627017  0.08617784  0.86226034  1
  Te  Te30  1  0.41663360  0.25837164  0.36554812  1
  Te  Te31  1  0.58336640  0.75837164  0.13445188  1
  Te  Te32  1  0.58336640  0.74162836  0.63445188  1
  Te  Te33  1  0.41663360  0.24162836  0.86554812  1
  Te  Te34  1  0.42643331  0.92793299  0.37092895  1
  Te  Te35  1  0.90934565  0.74295683  0.40127484  1
  Te  Te36  1  0.90934565  0.75704317  0.90127484  1
  Te  Te37  1  0.09065435  0.25704317  0.59872516  1
  Te  Te38  1  0.07372983  0.91382216  0.13773966  1
  Te  Te39  1  0.57356669  0.42793299  0.12907105  1
