# generated using pymatgen
data_GaHO2
_symmetry_space_group_name_H-M   'P 1'
_cell_length_a   13.77440353
_cell_length_b   3.03613077
_cell_length_c   3.83174459
_cell_angle_alpha   90.00000000
_cell_angle_beta   90.00000000
_cell_angle_gamma   90.00000000
_symmetry_Int_Tables_number   1
_chemical_formula_structural   GaHO2
_chemical_formula_sum   'Ga4 H4 O8'
_cell_volume   160.24697071
_cell_formula_units_Z   4
loop_
 _symmetry_equiv_pos_site_id
 _symmetry_equiv_pos_as_xyz
  1  'x, y, z'
loop_
 _atom_site_type_symbol
 _atom_site_label
 _atom_site_symmetry_multiplicity
 _atom_site_fract_x
 _atom_site_fract_y
 _atom_site_fract_z
 _atom_site_occupancy
  Ga  Ga0  1  0.18349938  0.75000000  0.40526658  1
  Ga  Ga1  1  0.31650062  0.25000000  0.90526658  1
  Ga  Ga2  1  0.68349938  0.75000000  0.09473342  1
  Ga  Ga3  1  0.81650062  0.25000000  0.59473342  1
  H  H4  1  0.05084166  0.25000000  0.62146154  1
  H  H5  1  0.44915834  0.75000000  0.12146154  1
  H  H6  1  0.55084166  0.25000000  0.87853846  1
  H  H7  1  0.94915834  0.75000000  0.37853846  1
  O  O8  1  0.08907109  0.25000000  0.40514683  1
  O  O9  1  0.28647929  0.25000000  0.40756423  1
  O  O10  1  0.21352071  0.75000000  0.90756423  1
  O  O11  1  0.41092891  0.75000000  0.90514683  1
  O  O12  1  0.58907109  0.25000000  0.09485317  1
  O  O13  1  0.78647929  0.25000000  0.09243577  1
  O  O14  1  0.71352071  0.75000000  0.59243577  1
  O  O15  1  0.91092891  0.75000000  0.59485317  1
