# generated using pymatgen
data_SbPO4
_symmetry_space_group_name_H-M   'P 1'
_cell_length_a   4.74543850
_cell_length_b   6.86143875
_cell_length_c   5.06757552
_cell_angle_alpha   90.00000000
_cell_angle_beta   95.70108407
_cell_angle_gamma   90.00000000
_symmetry_Int_Tables_number   1
_chemical_formula_structural   SbPO4
_chemical_formula_sum   'Sb2 P2 O8'
_cell_volume   164.18681745
_cell_formula_units_Z   2
loop_
 _symmetry_equiv_pos_site_id
 _symmetry_equiv_pos_as_xyz
  1  'x, y, z'
loop_
 _atom_site_type_symbol
 _atom_site_label
 _atom_site_symmetry_multiplicity
 _atom_site_fract_x
 _atom_site_fract_y
 _atom_site_fract_z
 _atom_site_occupancy
  Sb  Sb0  1  0.19253063  0.75000000  0.16813823  1
  Sb  Sb1  1  0.80746937  0.25000000  0.83186177  1
  P  P2  1  0.71645459  0.75000000  0.61230735  1
  P  P3  1  0.28354541  0.25000000  0.38769265  1
  O  O4  1  0.17585605  0.42827225  0.22450331  1
  O  O5  1  0.82414395  0.92827225  0.77549669  1
  O  O6  1  0.82414395  0.57172775  0.77549669  1
  O  O7  1  0.17585605  0.07172775  0.22450331  1
  O  O8  1  0.18596026  0.25000000  0.67469275  1
  O  O9  1  0.81403974  0.75000000  0.32530725  1
  O  O10  1  0.61298757  0.25000000  0.44016375  1
  O  O11  1  0.38701243  0.75000000  0.55983625  1
