# generated using pymatgen
data_IrBr3
_symmetry_space_group_name_H-M   'P 1'
_cell_length_a   6.41309462
_cell_length_b   6.41659031
_cell_length_c   6.33124764
_cell_angle_alpha   80.86615108
_cell_angle_beta   71.47878268
_cell_angle_gamma   60.01801513
_symmetry_Int_Tables_number   1
_chemical_formula_structural   IrBr3
_chemical_formula_sum   'Ir2 Br6'
_cell_volume   213.98012722
_cell_formula_units_Z   2
loop_
 _symmetry_equiv_pos_site_id
 _symmetry_equiv_pos_as_xyz
  1  'x, y, z'
loop_
 _atom_site_type_symbol
 _atom_site_label
 _atom_site_symmetry_multiplicity
 _atom_site_fract_x
 _atom_site_fract_y
 _atom_site_fract_z
 _atom_site_occupancy
  Ir  Ir0  1  0.83341555  0.33316889  -0.00000000  1
  Ir  Ir1  1  0.16658445  0.66683111  0.00000000  1
  Br  Br2  1  0.57250938  0.34913273  0.76746858  1
  Br  Br3  1  0.07835789  0.34913273  0.23253142  1
  Br  Br4  1  0.77637892  -0.00000000  0.23454891  1
  Br  Br5  1  0.22362108  0.00000000  0.76545109  1
  Br  Br6  1  0.92164211  0.65086827  0.76746858  1
  Br  Br7  1  0.42749062  0.65086827  0.23253142  1
