# generated using pymatgen
data_Nb3TeI7
_symmetry_space_group_name_H-M   'P 1'
_cell_length_a   7.70909094
_cell_length_b   7.70909046
_cell_length_c   6.96983171
_cell_angle_alpha   90.00000000
_cell_angle_beta   90.00000000
_cell_angle_gamma   119.99999781
_symmetry_Int_Tables_number   1
_chemical_formula_structural   Nb3TeI7
_chemical_formula_sum   'Nb3 Te1 I7'
_cell_volume   358.72301730
_cell_formula_units_Z   1
loop_
 _symmetry_equiv_pos_site_id
 _symmetry_equiv_pos_as_xyz
  1  'x, y, z'
loop_
 _atom_site_type_symbol
 _atom_site_label
 _atom_site_symmetry_multiplicity
 _atom_site_fract_x
 _atom_site_fract_y
 _atom_site_fract_z
 _atom_site_occupancy
  Nb  Nb0  1  0.26492657  0.13246329  0.49896504  1
  Nb  Nb1  1  0.86753671  0.13246329  0.49896504  1
  Nb  Nb2  1  0.86753671  0.73507343  0.49896504  1
  Te  Te3  1  0.00000000  0.00000000  0.19964081  1
  I  I4  1  0.66123493  0.83061747  0.76402496  1
  I  I5  1  0.49876133  0.99752267  0.27570239  1
  I  I6  1  0.16938253  0.83061747  0.76402496  1
  I  I7  1  0.00247733  0.50123867  0.27570239  1
  I  I8  1  0.66666700  0.33333300  0.71388101  1
  I  I9  1  0.16938253  0.33876507  0.76402496  1
  I  I10  1  0.49876133  0.50123867  0.27570239  1
