# generated using pymatgen
data_Ge2S3I2
_symmetry_space_group_name_H-M   'P 1'
_cell_length_a   10.56505450
_cell_length_b   10.56505450
_cell_length_c   9.47685277
_cell_angle_alpha   90.00000000
_cell_angle_beta   90.00000000
_cell_angle_gamma   119.99999777
_symmetry_Int_Tables_number   1
_chemical_formula_structural   Ge2S3I2
_chemical_formula_sum   'Ge8 S12 I8'
_cell_volume   916.09024551
_cell_formula_units_Z   4
loop_
 _symmetry_equiv_pos_site_id
 _symmetry_equiv_pos_as_xyz
  1  'x, y, z'
loop_
 _atom_site_type_symbol
 _atom_site_label
 _atom_site_symmetry_multiplicity
 _atom_site_fract_x
 _atom_site_fract_y
 _atom_site_fract_z
 _atom_site_occupancy
  Ge  Ge0  1  0.71483558  0.54244454  0.26713656  1
  Ge  Ge1  1  0.82760896  0.28516442  0.26713656  1
  Ge  Ge2  1  0.33333300  0.66666700  0.43244964  1
  Ge  Ge3  1  0.28516442  0.45755546  0.73286344  1
  Ge  Ge4  1  0.17239104  0.71483558  0.73286344  1
  Ge  Ge5  1  0.54244454  0.82760896  0.73286344  1
  Ge  Ge6  1  0.66666700  0.33333300  0.56755036  1
  Ge  Ge7  1  0.45755546  0.17239104  0.26713656  1
  S  S8  1  0.38564658  0.89332886  0.82244548  1
  S  S9  1  0.10667114  0.49231772  0.82244548  1
  S  S10  1  0.49231772  0.38564658  0.17755452  1
  S  S11  1  0.61435342  0.10667114  0.17755452  1
  S  S12  1  0.50768228  0.61435342  0.82244548  1
  S  S13  1  0.71860172  0.56008980  0.50342921  1
  S  S14  1  0.43991020  0.15851192  0.50342921  1
  S  S15  1  0.84148808  0.28139828  0.50342921  1
  S  S16  1  0.56008980  0.84148808  0.49657079  1
  S  S17  1  0.15851192  0.71860172  0.49657079  1
  S  S18  1  0.28139828  0.43991020  0.49657079  1
  S  S19  1  0.89332886  0.50768228  0.17755452  1
  I  I20  1  0.77819663  0.79444428  0.18106291  1
  I  I21  1  0.20555572  -0.01624765  0.18106291  1
  I  I22  1  0.22180337  0.20555572  0.81893709  1
  I  I23  1  -0.01624765  0.77819663  0.81893709  1
  I  I24  1  0.79444428  0.01624765  0.81893709  1
  I  I25  1  0.66666700  0.33333300  0.83408353  1
  I  I26  1  0.33333300  0.66666700  0.16591647  1
  I  I27  1  0.01624765  0.22180337  0.18106291  1
