# generated using pymatgen
data_SiH
_symmetry_space_group_name_H-M   'P 1'
_cell_length_a   3.90806889
_cell_length_b   3.90806889
_cell_length_c   5.00214127
_cell_angle_alpha   90.00000000
_cell_angle_beta   90.00000000
_cell_angle_gamma   120.00000582
_symmetry_Int_Tables_number   1
_chemical_formula_structural   SiH
_chemical_formula_sum   'Si2 H2'
_cell_volume   66.16235902
_cell_formula_units_Z   2
loop_
 _symmetry_equiv_pos_site_id
 _symmetry_equiv_pos_as_xyz
  1  'x, y, z'
loop_
 _atom_site_type_symbol
 _atom_site_label
 _atom_site_symmetry_multiplicity
 _atom_site_fract_x
 _atom_site_fract_y
 _atom_site_fract_z
 _atom_site_occupancy
  Si  Si0  1  0.33333300  0.66666700  0.92803589  1
  Si  Si1  1  0.66666700  0.33333300  0.07196411  1
  H  H2  1  0.33333300  0.66666700  0.62704025  1
  H  H3  1  0.66666700  0.33333300  0.37295975  1
