# generated using pymatgen
data_AgClO2
_symmetry_space_group_name_H-M   'P 1'
_cell_length_a   3.96005313
_cell_length_b   3.96005293
_cell_length_c   8.44593604
_cell_angle_alpha   90.01464437
_cell_angle_beta   90.01464847
_cell_angle_gamma   94.71843365
_symmetry_Int_Tables_number   1
_chemical_formula_structural   AgClO2
_chemical_formula_sum   'Ag2 Cl2 O4'
_cell_volume   132.00045423
_cell_formula_units_Z   2
loop_
 _symmetry_equiv_pos_site_id
 _symmetry_equiv_pos_as_xyz
  1  'x, y, z'
loop_
 _atom_site_type_symbol
 _atom_site_label
 _atom_site_symmetry_multiplicity
 _atom_site_fract_x
 _atom_site_fract_y
 _atom_site_fract_z
 _atom_site_occupancy
  Ag  Ag0  1  0.83738303  0.33738303  0.42333950  1
  Ag  Ag1  1  0.33764176  0.83764177  0.57669563  1
  Cl  Cl2  1  0.26932730  0.76932730  0.15337872  1
  Cl  Cl3  1  0.77002417  0.27002417  0.84660505  1
  O  O4  1  -0.02285682  0.47714318  0.18143615  1
  O  O5  1  0.91555427  0.41555427  0.67735484  1
  O  O6  1  0.47780422  -0.02219578  0.81860426  1
  O  O7  1  0.41512106  0.91512106  0.32258586  1
