# generated using pymatgen
data_PdSeO3
_symmetry_space_group_name_H-M   'P 1'
_cell_length_a   3.93182825
_cell_length_b   5.98410879
_cell_length_c   6.52708372
_cell_angle_alpha   89.99436357
_cell_angle_beta   89.99888967
_cell_angle_gamma   94.22362439
_symmetry_Int_Tables_number   1
_chemical_formula_structural   PdSeO3
_chemical_formula_sum   'Pd2 Se2 O6'
_cell_volume   153.15533729
_cell_formula_units_Z   2
loop_
 _symmetry_equiv_pos_site_id
 _symmetry_equiv_pos_as_xyz
  1  'x, y, z'
loop_
 _atom_site_type_symbol
 _atom_site_label
 _atom_site_symmetry_multiplicity
 _atom_site_fract_x
 _atom_site_fract_y
 _atom_site_fract_z
 _atom_site_occupancy
  Pd  Pd0  1  -0.00000013  -0.00000005  0.00000009  1
  Pd  Pd1  1  -0.00000005  0.00000004  0.50000011  1
  Se  Se2  1  0.45441253  0.66107418  0.75001103  1
  Se  Se3  1  0.54558723  0.33892580  0.24998968  1
  O  O4  1  0.28202638  0.29487765  0.04129961  1
  O  O5  1  0.28658445  0.94254822  0.75000483  1
  O  O6  1  0.71797313  0.70512230  0.95870033  1
  O  O7  1  0.71793808  0.70513792  0.54129330  1
  O  O8  1  0.71341539  0.05745187  0.24999535  1
  O  O9  1  0.28206199  0.29486207  0.45870668  1
