# generated using pymatgen
data_Mg2Al2Se5
_symmetry_space_group_name_H-M   'P 1'
_cell_length_a   3.90035518
_cell_length_b   3.90035518
_cell_length_c   16.07528771
_cell_angle_alpha   90.00000000
_cell_angle_beta   90.00000000
_cell_angle_gamma   119.99998202
_symmetry_Int_Tables_number   1
_chemical_formula_structural   Mg2Al2Se5
_chemical_formula_sum   'Mg2 Al2 Se5'
_cell_volume   211.78625889
_cell_formula_units_Z   1
loop_
 _symmetry_equiv_pos_site_id
 _symmetry_equiv_pos_as_xyz
  1  'x, y, z'
loop_
 _atom_site_type_symbol
 _atom_site_label
 _atom_site_symmetry_multiplicity
 _atom_site_fract_x
 _atom_site_fract_y
 _atom_site_fract_z
 _atom_site_occupancy
  Mg  Mg0  1  0.33333300  0.66666700  0.40065493  1
  Mg  Mg1  1  0.66666700  0.33333300  0.59934507  1
  Al  Al2  1  0.33333300  0.66666700  0.83093212  1
  Al  Al3  1  0.66666700  0.33333300  0.16906788  1
  Se  Se4  1  0.66666700  0.33333300  0.89727320  1
  Se  Se5  1  0.33333300  0.66666700  0.10272680  1
  Se  Se6  1  0.66666700  0.33333300  0.31254645  1
  Se  Se7  1  0.33333300  0.66666700  0.68745355  1
  Se  Se8  1  0.00000000  0.00000000  0.50000000  1
