# generated using pymatgen
data_KSbS2
_symmetry_space_group_name_H-M   'P 1'
_cell_length_a   6.27172672
_cell_length_b   6.27172598
_cell_length_c   6.96566983
_cell_angle_alpha   111.81171878
_cell_angle_beta   111.81171539
_cell_angle_gamma   91.10247515
_symmetry_Int_Tables_number   1
_chemical_formula_structural   KSbS2
_chemical_formula_sum   'K2 Sb2 S4'
_cell_volume   232.19983425
_cell_formula_units_Z   2
loop_
 _symmetry_equiv_pos_site_id
 _symmetry_equiv_pos_as_xyz
  1  'x, y, z'
loop_
 _atom_site_type_symbol
 _atom_site_label
 _atom_site_symmetry_multiplicity
 _atom_site_fract_x
 _atom_site_fract_y
 _atom_site_fract_z
 _atom_site_occupancy
  K  K0  1  0.86189201  0.13810799  0.75000000  1
  K  K1  1  0.13810799  0.86189201  0.25000000  1
  Sb  Sb2  1  0.59456186  0.40543814  0.25000000  1
  Sb  Sb3  1  0.40543814  0.59456186  0.75000000  1
  S  S4  1  0.21306248  0.37356216  0.27666379  1
  S  S5  1  0.62643784  0.78693752  0.22333621  1
  S  S6  1  0.37356216  0.21306248  0.77666379  1
  S  S7  1  0.78693752  0.62643784  0.72333621  1
