# generated using pymatgen
data_ZrS3
_symmetry_space_group_name_H-M   'P 1'
_cell_length_a   5.16813864
_cell_length_b   3.64884924
_cell_length_c   9.04672341
_cell_angle_alpha   90.00000000
_cell_angle_beta   96.98902499
_cell_angle_gamma   90.00000000
_symmetry_Int_Tables_number   1
_chemical_formula_structural   ZrS3
_chemical_formula_sum   'Zr2 S6'
_cell_volume   169.33327330
_cell_formula_units_Z   2
loop_
 _symmetry_equiv_pos_site_id
 _symmetry_equiv_pos_as_xyz
  1  'x, y, z'
loop_
 _atom_site_type_symbol
 _atom_site_label
 _atom_site_symmetry_multiplicity
 _atom_site_fract_x
 _atom_site_fract_y
 _atom_site_fract_z
 _atom_site_occupancy
  Zr  Zr0  1  0.71719444  0.25000000  0.84527951  1
  Zr  Zr1  1  0.28280556  0.75000000  0.15472049  1
  S  S2  1  0.12192415  0.25000000  0.33224227  1
  S  S3  1  0.87807585  0.75000000  0.66775773  1
  S  S4  1  0.76190423  0.75000000  0.05449556  1
  S  S5  1  0.23809577  0.25000000  0.94550444  1
  S  S6  1  0.47551490  0.75000000  0.67160106  1
  S  S7  1  0.52448510  0.25000000  0.32839894  1
