# generated using pymatgen
data_InSiTe3
_symmetry_space_group_name_H-M   'P 1'
_cell_length_a   7.16033606
_cell_length_b   7.16033540
_cell_length_c   7.19426750
_cell_angle_alpha   90.00000000
_cell_angle_beta   90.00000000
_cell_angle_gamma   119.99999843
_symmetry_Int_Tables_number   1
_chemical_formula_structural   InSiTe3
_chemical_formula_sum   'In2 Si2 Te6'
_cell_volume   319.43609756
_cell_formula_units_Z   2
loop_
 _symmetry_equiv_pos_site_id
 _symmetry_equiv_pos_as_xyz
  1  'x, y, z'
loop_
 _atom_site_type_symbol
 _atom_site_label
 _atom_site_symmetry_multiplicity
 _atom_site_fract_x
 _atom_site_fract_y
 _atom_site_fract_z
 _atom_site_occupancy
  In  In0  1  0.66666700  0.33333300  0.49986545  1
  In  In1  1  0.33333300  0.66666700  0.50013455  1
  Si  Si2  1  0.00000000  0.00000000  0.33726845  1
  Si  Si3  1  0.00000000  0.00000000  0.66273155  1
  Te  Te4  1  0.00009041  0.66129660  0.23203874  1
  Te  Te5  1  0.33870340  0.33879482  0.23203874  1
  Te  Te6  1  0.99990959  0.33870340  0.76796126  1
  Te  Te7  1  0.33879482  0.00009041  0.76796126  1
  Te  Te8  1  0.66120518  0.99990959  0.23203874  1
  Te  Te9  1  0.66129660  0.66120518  0.76796126  1
