# generated using pymatgen
data_PbI2
_symmetry_space_group_name_H-M   'P 1'
_cell_length_a   14.36501783
_cell_length_b   14.36501809
_cell_length_c   14.36501835
_cell_angle_alpha   18.36058950
_cell_angle_beta   18.36058533
_cell_angle_gamma   18.36058798
_symmetry_Int_Tables_number   1
_chemical_formula_structural   PbI2
_chemical_formula_sum   'Pb2 I4'
_cell_volume   256.89750078
_cell_formula_units_Z   2
loop_
 _symmetry_equiv_pos_site_id
 _symmetry_equiv_pos_as_xyz
  1  'x, y, z'
loop_
 _atom_site_type_symbol
 _atom_site_label
 _atom_site_symmetry_multiplicity
 _atom_site_fract_x
 _atom_site_fract_y
 _atom_site_fract_z
 _atom_site_occupancy
  Pb  Pb0  1  0.00000000  0.00000000  0.00000000  1
  Pb  Pb1  1  0.50000000  0.50000000  0.50000000  1
  I  I2  1  0.12187713  0.12187713  0.12187713  1
  I  I3  1  0.87812287  0.87812287  0.87812287  1
  I  I4  1  0.28854392  0.28854392  0.28854392  1
  I  I5  1  0.71145608  0.71145608  0.71145608  1
