# generated using pymatgen
data_HgF
_symmetry_space_group_name_H-M   'P 1'
_cell_length_a   3.71301401
_cell_length_b   3.71301393
_cell_length_c   6.11697147
_cell_angle_alpha   107.66800545
_cell_angle_beta   107.66800505
_cell_angle_gamma   90.00000632
_symmetry_Int_Tables_number   1
_chemical_formula_structural   HgF
_chemical_formula_sum   'Hg2 F2'
_cell_volume   76.16836106
_cell_formula_units_Z   2
loop_
 _symmetry_equiv_pos_site_id
 _symmetry_equiv_pos_as_xyz
  1  'x, y, z'
loop_
 _atom_site_type_symbol
 _atom_site_label
 _atom_site_symmetry_multiplicity
 _atom_site_fract_x
 _atom_site_fract_y
 _atom_site_fract_z
 _atom_site_occupancy
  Hg  Hg0  1  0.88400039  0.88400039  0.76800078  1
  Hg  Hg1  1  0.11599961  0.11599961  0.23199922  1
  F  F2  1  0.68650153  0.68650153  0.37300407  1
  F  F3  1  0.31349847  0.31349847  0.62699593  1
