# generated using pymatgen
data_CaCO3
_symmetry_space_group_name_H-M   'P 1'
_cell_length_a   4.31903589
_cell_length_b   4.96264517
_cell_length_c   4.94764407
_cell_angle_alpha   90.00000000
_cell_angle_beta   90.00000000
_cell_angle_gamma   90.00000000
_symmetry_Int_Tables_number   1
_chemical_formula_structural   CaCO3
_chemical_formula_sum   'Ca2 C2 O6'
_cell_volume   106.04702408
_cell_formula_units_Z   2
loop_
 _symmetry_equiv_pos_site_id
 _symmetry_equiv_pos_as_xyz
  1  'x, y, z'
loop_
 _atom_site_type_symbol
 _atom_site_label
 _atom_site_symmetry_multiplicity
 _atom_site_fract_x
 _atom_site_fract_y
 _atom_site_fract_z
 _atom_site_occupancy
  Ca  Ca0  1  0.60467995  0.50000000  0.00000000  1
  Ca  Ca1  1  0.39532005  0.00000000  0.50000000  1
  C  C2  1  0.98936384  0.00000000  0.00000000  1
  C  C3  1  0.01063616  0.50000000  0.50000000  1
  O  O4  1  0.13171279  0.22777291  0.00000000  1
  O  O5  1  0.13171279  0.77222709  0.00000000  1
  O  O6  1  0.31364218  0.50000000  0.50000000  1
  O  O7  1  0.68635782  0.00000000  0.00000000  1
  O  O8  1  0.86828721  0.27222709  0.50000000  1
  O  O9  1  0.86828721  0.72777291  0.50000000  1
