# generated using pymatgen
data_SN
_symmetry_space_group_name_H-M   'P 1'
_cell_length_a   4.40604343
_cell_length_b   3.76389999
_cell_length_c   8.28459443
_cell_angle_alpha   90.00000000
_cell_angle_beta   106.02922861
_cell_angle_gamma   90.00000000
_symmetry_Int_Tables_number   1
_chemical_formula_structural   SN
_chemical_formula_sum   'S4 N4'
_cell_volume   132.04931399
_cell_formula_units_Z   4
loop_
 _symmetry_equiv_pos_site_id
 _symmetry_equiv_pos_as_xyz
  1  'x, y, z'
loop_
 _atom_site_type_symbol
 _atom_site_label
 _atom_site_symmetry_multiplicity
 _atom_site_fract_x
 _atom_site_fract_y
 _atom_site_fract_z
 _atom_site_occupancy
  S  S0  1  0.20632838  0.62645908  0.60756009  1
  S  S1  1  0.79367162  0.12645908  0.89243991  1
  S  S2  1  0.79367162  0.37354092  0.39243991  1
  S  S3  1  0.20632838  0.87354092  0.10756009  1
  N  N4  1  0.82276563  0.55494060  0.57751271  1
  N  N5  1  0.17723437  0.05494060  0.92248729  1
  N  N6  1  0.17723437  0.44505940  0.42248729  1
  N  N7  1  0.82276563  0.94505940  0.07751271  1
