# generated using pymatgen
data_ScHO2
_symmetry_space_group_name_H-M   'P 1'
_cell_length_a   6.66602860
_cell_length_b   6.66602860
_cell_length_c   4.04876494
_cell_angle_alpha   90.00000000
_cell_angle_beta   90.00000000
_cell_angle_gamma   28.31320215
_symmetry_Int_Tables_number   1
_chemical_formula_structural   ScHO2
_chemical_formula_sum   'Sc2 H2 O4'
_cell_volume   85.33002314
_cell_formula_units_Z   2
loop_
 _symmetry_equiv_pos_site_id
 _symmetry_equiv_pos_as_xyz
  1  'x, y, z'
loop_
 _atom_site_type_symbol
 _atom_site_label
 _atom_site_symmetry_multiplicity
 _atom_site_fract_x
 _atom_site_fract_y
 _atom_site_fract_z
 _atom_site_occupancy
  Sc  Sc0  1  0.67558003  0.67558003  0.24910147  1
  Sc  Sc1  1  0.32441997  0.32441997  0.74910147  1
  H  H2  1  0.01520965  0.01520965  0.43536154  1
  H  H3  1  0.98479035  0.98479035  0.93536154  1
  O  O4  1  0.28543869  0.28543869  0.25007819  1
  O  O5  1  0.71456131  0.71456131  0.75007819  1
  O  O6  1  0.06888237  0.06888237  0.25485880  1
  O  O7  1  0.93111763  0.93111763  0.75485880  1
