# generated using pymatgen
data_Rb3Nb2Br9
_symmetry_space_group_name_H-M   'P 1'
_cell_length_a   7.60393906
_cell_length_b   7.60393906
_cell_length_c   17.75892144
_cell_angle_alpha   90.00000000
_cell_angle_beta   90.00000000
_cell_angle_gamma   120.00000229
_symmetry_Int_Tables_number   1
_chemical_formula_structural   Rb3Nb2Br9
_chemical_formula_sum   'Rb6 Nb4 Br18'
_cell_volume   889.25120665
_cell_formula_units_Z   2
loop_
 _symmetry_equiv_pos_site_id
 _symmetry_equiv_pos_as_xyz
  1  'x, y, z'
loop_
 _atom_site_type_symbol
 _atom_site_label
 _atom_site_symmetry_multiplicity
 _atom_site_fract_x
 _atom_site_fract_y
 _atom_site_fract_z
 _atom_site_occupancy
  Rb  Rb0  1  0.00000000  0.00000000  0.25000000  1
  Rb  Rb1  1  0.00000000  0.00000000  0.75000000  1
  Rb  Rb2  1  0.33333300  0.66666700  0.07067110  1
  Rb  Rb3  1  0.66666700  0.33333300  0.57067110  1
  Rb  Rb4  1  0.66666700  0.33333300  0.92932890  1
  Rb  Rb5  1  0.33333300  0.66666700  0.42932890  1
  Nb  Nb6  1  0.33333300  0.66666700  0.67349095  1
  Nb  Nb7  1  0.66666700  0.33333300  0.17349095  1
  Nb  Nb8  1  0.33333300  0.66666700  0.82650905  1
  Nb  Nb9  1  0.66666700  0.33333300  0.32650905  1
  Br  Br10  1  0.83060758  0.16939242  0.09048455  1
  Br  Br11  1  0.83060758  0.16939242  0.40951545  1
  Br  Br12  1  0.16939242  0.83060758  0.90951545  1
  Br  Br13  1  0.66121516  0.83060758  0.59048455  1
  Br  Br14  1  0.16939242  0.33878484  0.90951545  1
  Br  Br15  1  0.66121516  0.83060758  0.90951545  1
  Br  Br16  1  0.83060758  0.66121516  0.09048455  1
  Br  Br17  1  0.16939242  0.83060758  0.59048455  1
  Br  Br18  1  0.48973961  0.51026039  0.25000000  1
  Br  Br19  1  0.33878484  0.16939242  0.09048455  1
  Br  Br20  1  0.97947923  0.48973961  0.75000000  1
  Br  Br21  1  0.48973961  0.97947923  0.25000000  1
  Br  Br22  1  0.33878484  0.16939242  0.40951545  1
  Br  Br23  1  0.51026039  0.48973961  0.75000000  1
  Br  Br24  1  0.51026039  0.02052077  0.75000000  1
  Br  Br25  1  0.02052077  0.51026039  0.25000000  1
  Br  Br26  1  0.16939242  0.33878484  0.59048455  1
  Br  Br27  1  0.83060758  0.66121516  0.40951545  1
