# generated using pymatgen
data_PbF4
_symmetry_space_group_name_H-M   'P 1'
_cell_length_a   4.33903015
_cell_length_b   4.33903049
_cell_length_c   4.97840902
_cell_angle_alpha   115.83524344
_cell_angle_beta   115.83523975
_cell_angle_gamma   89.99999830
_symmetry_Int_Tables_number   1
_chemical_formula_structural   PbF4
_chemical_formula_sum   'Pb1 F4'
_cell_volume   73.81352762
_cell_formula_units_Z   1
loop_
 _symmetry_equiv_pos_site_id
 _symmetry_equiv_pos_as_xyz
  1  'x, y, z'
loop_
 _atom_site_type_symbol
 _atom_site_label
 _atom_site_symmetry_multiplicity
 _atom_site_fract_x
 _atom_site_fract_y
 _atom_site_fract_z
 _atom_site_occupancy
  Pb  Pb0  1  0.00000000  0.00000000  0.00000000  1
  F  F1  1  0.74438616  0.74438616  0.48877233  1
  F  F2  1  -0.00000000  0.50000000  -0.00000000  1
  F  F3  1  0.50000000  0.00000000  0.00000000  1
  F  F4  1  0.25561384  0.25561384  0.51122767  1
