# generated using pymatgen
data_Sr(ClO2)2
_symmetry_space_group_name_H-M   'P 1'
_cell_length_a   5.95336158
_cell_length_b   5.98403311
_cell_length_c   6.91944307
_cell_angle_alpha   115.62041825
_cell_angle_beta   90.00000000
_cell_angle_gamma   90.00000000
_symmetry_Int_Tables_number   1
_chemical_formula_structural   Sr(ClO2)2
_chemical_formula_sum   'Sr2 Cl4 O8'
_cell_volume   222.26910316
_cell_formula_units_Z   2
loop_
 _symmetry_equiv_pos_site_id
 _symmetry_equiv_pos_as_xyz
  1  'x, y, z'
loop_
 _atom_site_type_symbol
 _atom_site_label
 _atom_site_symmetry_multiplicity
 _atom_site_fract_x
 _atom_site_fract_y
 _atom_site_fract_z
 _atom_site_occupancy
  Sr  Sr0  1  0.75000000  0.25000000  0.50000000  1
  Sr  Sr1  1  0.25000000  0.75000000  0.50000000  1
  Cl  Cl2  1  0.25000000  0.07250079  0.14500158  1
  Cl  Cl3  1  0.25000000  0.42749921  0.85499842  1
  Cl  Cl4  1  0.75000000  0.57250079  0.14500158  1
  Cl  Cl5  1  0.75000000  0.92749921  0.85499842  1
  O  O6  1  0.59651608  0.48783553  0.28874438  1
  O  O7  1  0.09651608  0.30090785  0.28874438  1
  O  O8  1  0.90348392  0.69909215  0.71125562  1
  O  O9  1  0.40348392  0.51216447  0.71125562  1
  O  O10  1  0.90348392  0.80090785  0.28874438  1
  O  O11  1  0.59651608  0.01216447  0.71125562  1
  O  O12  1  0.40348392  0.98783553  0.28874438  1
  O  O13  1  0.09651608  0.19909215  0.71125562  1
