# generated using pymatgen
data_CdBiSe2I
_symmetry_space_group_name_H-M   'P 1'
_cell_length_a   4.24540494
_cell_length_b   7.21659168
_cell_length_c   10.21188631
_cell_angle_alpha   91.36622901
_cell_angle_beta   89.99999998
_cell_angle_gamma   107.10608899
_symmetry_Int_Tables_number   1
_chemical_formula_structural   CdBiSe2I
_chemical_formula_sum   'Cd2 Bi2 Se4 I2'
_cell_volume   298.93151060
_cell_formula_units_Z   2
loop_
 _symmetry_equiv_pos_site_id
 _symmetry_equiv_pos_as_xyz
  1  'x, y, z'
loop_
 _atom_site_type_symbol
 _atom_site_label
 _atom_site_symmetry_multiplicity
 _atom_site_fract_x
 _atom_site_fract_y
 _atom_site_fract_z
 _atom_site_occupancy
  Cd  Cd0  1  0.00000000  0.00000000  0.50000000  1
  Cd  Cd1  1  0.00000000  0.00000000  0.00000000  1
  Bi  Bi2  1  0.28286503  0.56573105  0.68842594  1
  Bi  Bi3  1  0.71713497  0.43426895  0.31157406  1
  Se  Se4  1  0.35721141  0.71442182  0.44022337  1
  Se  Se5  1  0.64278859  0.28557818  0.55977663  1
  Se  Se6  1  0.91986683  0.83973266  0.74168159  1
  Se  Se7  1  0.08013317  0.16026734  0.25831841  1
  I  I8  1  0.64032877  0.28065654  0.92512346  1
  I  I9  1  0.35967123  0.71934346  0.07487654  1
