# generated using pymatgen
data_OsCl2O
_symmetry_space_group_name_H-M   'P 1'
_cell_length_a   3.63101180
_cell_length_b   3.72810985
_cell_length_c   6.11249849
_cell_angle_alpha   107.75676489
_cell_angle_beta   107.27842759
_cell_angle_gamma   89.99999737
_symmetry_Int_Tables_number   1
_chemical_formula_structural   OsCl2O
_chemical_formula_sum   'Os1 Cl2 O1'
_cell_volume   74.87147130
_cell_formula_units_Z   1
loop_
 _symmetry_equiv_pos_site_id
 _symmetry_equiv_pos_as_xyz
  1  'x, y, z'
loop_
 _atom_site_type_symbol
 _atom_site_label
 _atom_site_symmetry_multiplicity
 _atom_site_fract_x
 _atom_site_fract_y
 _atom_site_fract_z
 _atom_site_occupancy
  Os  Os0  1  0.00000000  0.00000000  0.00000000  1
  Cl  Cl1  1  0.35616525  0.85614934  0.71233050  1
  Cl  Cl2  1  0.64383475  0.14385066  0.28766950  1
  O  O3  1  -0.00000000  0.50000000  -0.00000000  1
