# generated using pymatgen
data_VCl2O
_symmetry_space_group_name_H-M   'P 1'
_cell_length_a   3.26602100
_cell_length_b   3.60672582
_cell_length_c   6.54384712
_cell_angle_alpha   105.99827896
_cell_angle_beta   104.45066056
_cell_angle_gamma   90.00006559
_symmetry_Int_Tables_number   1
_chemical_formula_structural   VCl2O
_chemical_formula_sum   'V1 Cl2 O1'
_cell_volume   71.55830584
_cell_formula_units_Z   1
loop_
 _symmetry_equiv_pos_site_id
 _symmetry_equiv_pos_as_xyz
  1  'x, y, z'
loop_
 _atom_site_type_symbol
 _atom_site_label
 _atom_site_symmetry_multiplicity
 _atom_site_fract_x
 _atom_site_fract_y
 _atom_site_fract_z
 _atom_site_occupancy
  V  V0  1  -0.00000000  0.00000100  -0.00000000  1
  Cl  Cl1  1  0.64217918  0.14219834  0.28436020  1
  Cl  Cl2  1  0.35782082  0.85780166  0.71563880  1
  O  O3  1  0.00000100  0.50000000  -0.00000000  1
