# generated using pymatgen
data_BiI
_symmetry_space_group_name_H-M   'P 1'
_cell_length_a   4.42587799
_cell_length_b   7.64693225
_cell_length_c   20.24032725
_cell_angle_alpha   92.04712639
_cell_angle_beta   90.00000000
_cell_angle_gamma   106.82138708
_symmetry_Int_Tables_number   1
_chemical_formula_structural   BiI
_chemical_formula_sum   'Bi8 I8'
_cell_volume   655.25374927
_cell_formula_units_Z   8
loop_
 _symmetry_equiv_pos_site_id
 _symmetry_equiv_pos_as_xyz
  1  'x, y, z'
loop_
 _atom_site_type_symbol
 _atom_site_label
 _atom_site_symmetry_multiplicity
 _atom_site_fract_x
 _atom_site_fract_y
 _atom_site_fract_z
 _atom_site_occupancy
  Bi  Bi0  1  0.74567564  0.49135128  0.39334817  1
  Bi  Bi1  1  0.25432436  0.50864872  0.60665183  1
  Bi  Bi2  1  -0.00462453  -0.00925006  0.89569096  1
  Bi  Bi3  1  0.00462453  0.00925006  0.10430904  1
  Bi  Bi4  1  0.30117807  0.60235514  0.75727137  1
  Bi  Bi5  1  0.69882193  0.39764486  0.24272863  1
  Bi  Bi6  1  0.94468146  0.88936192  0.74569020  1
  Bi  Bi7  1  0.05531854  0.11063808  0.25430980  1
  I  I8  1  0.60933993  0.21868085  0.63430861  1
  I  I9  1  0.39066007  0.78131915  0.36569139  1
  I  I10  1  0.89116960  0.78234019  0.55994377  1
  I  I11  1  0.10883040  0.21765981  0.44005623  1
  I  I12  1  0.63413302  0.26826504  0.85240437  1
  I  I13  1  0.36586698  0.73173496  0.14759563  1
  I  I14  1  0.35846697  0.71693394  0.94216104  1
  I  I15  1  0.64153303  0.28306606  0.05783896  1
