# generated using pymatgen
data_GaTe
_symmetry_space_group_name_H-M   'P 1'
_cell_length_a   4.12361364
_cell_length_b   4.12361364
_cell_length_c   16.99804495
_cell_angle_alpha   90.00000000
_cell_angle_beta   90.00000000
_cell_angle_gamma   119.99999126
_symmetry_Int_Tables_number   1
_chemical_formula_structural   GaTe
_chemical_formula_sum   'Ga4 Te4'
_cell_volume   250.31425287
_cell_formula_units_Z   4
loop_
 _symmetry_equiv_pos_site_id
 _symmetry_equiv_pos_as_xyz
  1  'x, y, z'
loop_
 _atom_site_type_symbol
 _atom_site_label
 _atom_site_symmetry_multiplicity
 _atom_site_fract_x
 _atom_site_fract_y
 _atom_site_fract_z
 _atom_site_occupancy
  Ga  Ga0  1  0.33333300  0.66666700  0.17772913  1
  Ga  Ga1  1  0.66666700  0.33333300  0.67772913  1
  Ga  Ga2  1  0.66666700  0.33333300  0.82227087  1
  Ga  Ga3  1  0.33333300  0.66666700  0.32227087  1
  Te  Te4  1  0.33333300  0.66666700  0.89738151  1
  Te  Te5  1  0.66666700  0.33333300  0.39738151  1
  Te  Te6  1  0.66666700  0.33333300  0.10261849  1
  Te  Te7  1  0.33333300  0.66666700  0.60261849  1
