# generated using pymatgen
data_SbSI
_symmetry_space_group_name_H-M   'P 1'
_cell_length_a   4.11282191
_cell_length_b   8.64063936
_cell_length_c   10.32399862
_cell_angle_alpha   90.00000000
_cell_angle_beta   90.00000000
_cell_angle_gamma   90.00000000
_symmetry_Int_Tables_number   1
_chemical_formula_structural   SbSI
_chemical_formula_sum   'Sb4 S4 I4'
_cell_volume   366.88818110
_cell_formula_units_Z   4
loop_
 _symmetry_equiv_pos_site_id
 _symmetry_equiv_pos_as_xyz
  1  'x, y, z'
loop_
 _atom_site_type_symbol
 _atom_site_label
 _atom_site_symmetry_multiplicity
 _atom_site_fract_x
 _atom_site_fract_y
 _atom_site_fract_z
 _atom_site_occupancy
  Sb  Sb0  1  0.75000000  0.11954686  0.12408687  1
  Sb  Sb1  1  0.75000000  0.61954686  0.37591313  1
  Sb  Sb2  1  0.25000000  0.88045314  0.87591313  1
  Sb  Sb3  1  0.25000000  0.38045314  0.62408687  1
  S  S4  1  0.75000000  0.34369316  0.45448110  1
  S  S5  1  0.25000000  0.65630684  0.54551890  1
  S  S6  1  0.25000000  0.15630684  0.95448110  1
  S  S7  1  0.75000000  0.84369316  0.04551890  1
  I  I8  1  0.75000000  0.51075477  0.82783830  1
  I  I9  1  0.25000000  0.48924523  0.17216170  1
  I  I10  1  0.75000000  0.01075477  0.67216170  1
  I  I11  1  0.25000000  0.98924523  0.32783830  1
