# generated using pymatgen
data_Te2I
_symmetry_space_group_name_H-M   'P 1'
_cell_length_a   4.17783166
_cell_length_b   13.96351781
_cell_length_c   15.46164216
_cell_angle_alpha   90.00000000
_cell_angle_beta   90.00000000
_cell_angle_gamma   90.00000000
_symmetry_Int_Tables_number   1
_chemical_formula_structural   Te2I
_chemical_formula_sum   'Te16 I8'
_cell_volume   901.98932538
_cell_formula_units_Z   8
loop_
 _symmetry_equiv_pos_site_id
 _symmetry_equiv_pos_as_xyz
  1  'x, y, z'
loop_
 _atom_site_type_symbol
 _atom_site_label
 _atom_site_symmetry_multiplicity
 _atom_site_fract_x
 _atom_site_fract_y
 _atom_site_fract_z
 _atom_site_occupancy
  Te  Te0  1  0.25000000  0.23245807  0.92722384  1
  Te  Te1  1  0.25000000  0.29872000  0.18507879  1
  Te  Te2  1  0.75000000  0.70128000  0.81492121  1
  Te  Te3  1  0.75000000  0.79872000  0.31492121  1
  Te  Te4  1  0.25000000  0.20128000  0.68507879  1
  Te  Te5  1  0.25000000  0.56272316  0.78167716  1
  Te  Te6  1  0.25000000  0.93727684  0.28167716  1
  Te  Te7  1  0.75000000  0.06272316  0.71832284  1
  Te  Te8  1  0.75000000  0.43727684  0.21832284  1
  Te  Te9  1  0.25000000  0.58753273  0.58586860  1
  Te  Te10  1  0.25000000  0.91246727  0.08586860  1
  Te  Te11  1  0.75000000  0.08753273  0.91413140  1
  Te  Te12  1  0.25000000  0.26754193  0.42722384  1
  Te  Te13  1  0.75000000  0.73245807  0.57277616  1
  Te  Te14  1  0.75000000  0.76754193  0.07277616  1
  Te  Te15  1  0.75000000  0.41246727  0.41413140  1
  I  I16  1  0.25000000  0.87362502  0.83904284  1
  I  I17  1  0.75000000  0.39763951  0.94532699  1
  I  I18  1  0.25000000  0.60236049  0.05467301  1
  I  I19  1  0.25000000  0.89763951  0.55467301  1
  I  I20  1  0.75000000  0.10236049  0.44532699  1
  I  I21  1  0.75000000  0.37362502  0.66095716  1
  I  I22  1  0.25000000  0.62637498  0.33904284  1
  I  I23  1  0.75000000  0.12637498  0.16095716  1
