# generated using pymatgen
data_FePSe3
_symmetry_space_group_name_H-M   'P 1'
_cell_length_a   7.48750302
_cell_length_b   7.48750261
_cell_length_c   7.48750277
_cell_angle_alpha   49.36347962
_cell_angle_beta   49.36348419
_cell_angle_gamma   49.36347938
_symmetry_Int_Tables_number   1
_chemical_formula_structural   FePSe3
_chemical_formula_sum   'Fe2 P2 Se6'
_cell_volume   222.13477265
_cell_formula_units_Z   2
loop_
 _symmetry_equiv_pos_site_id
 _symmetry_equiv_pos_as_xyz
  1  'x, y, z'
loop_
 _atom_site_type_symbol
 _atom_site_label
 _atom_site_symmetry_multiplicity
 _atom_site_fract_x
 _atom_site_fract_y
 _atom_site_fract_z
 _atom_site_occupancy
  Fe  Fe0  1  0.83138509  0.83138509  0.83138509  1
  Fe  Fe1  1  0.16492269  0.16492269  0.16492269  1
  P  P2  1  0.55491069  0.55491069  0.55491069  1
  P  P3  1  0.44138389  0.44138389  0.44138389  1
  Se  Se4  1  0.41437100  0.76307698  0.06719968  1
  Se  Se5  1  0.06719968  0.41437100  0.76307698  1
  Se  Se6  1  0.76307698  0.06719968  0.41437100  1
  Se  Se7  1  0.58192109  0.23323126  0.92909764  1
  Se  Se8  1  0.92909764  0.58192109  0.23323126  1
  Se  Se9  1  0.23323126  0.92909764  0.58192109  1
