# generated using pymatgen
data_SbOF
_symmetry_space_group_name_H-M   'P 1'
_cell_length_a   5.55199087
_cell_length_b   6.43835622
_cell_length_c   5.29279625
_cell_angle_alpha   90.00000000
_cell_angle_beta   84.29326959
_cell_angle_gamma   90.00000000
_symmetry_Int_Tables_number   1
_chemical_formula_structural   SbOF
_chemical_formula_sum   'Sb4 O4 F4'
_cell_volume   188.25701167
_cell_formula_units_Z   4
loop_
 _symmetry_equiv_pos_site_id
 _symmetry_equiv_pos_as_xyz
  1  'x, y, z'
loop_
 _atom_site_type_symbol
 _atom_site_label
 _atom_site_symmetry_multiplicity
 _atom_site_fract_x
 _atom_site_fract_y
 _atom_site_fract_z
 _atom_site_occupancy
  Sb  Sb0  1  0.26689644  0.52982623  0.70216126  1
  Sb  Sb1  1  0.26689644  0.97017377  0.20216126  1
  Sb  Sb2  1  0.73310356  0.02982623  0.79783874  1
  Sb  Sb3  1  0.73310356  0.47017377  0.29783874  1
  O  O4  1  0.41954808  0.85275620  0.86263617  1
  O  O5  1  0.41954808  0.64724380  0.36263617  1
  O  O6  1  0.58045192  0.35275620  0.63736383  1
  O  O7  1  0.58045192  0.14724380  0.13736383  1
  F  F8  1  0.10021256  0.18615999  0.96597782  1
  F  F9  1  0.10021256  0.31384001  0.46597782  1
  F  F10  1  0.89978744  0.68615999  0.53402218  1
  F  F11  1  0.89978744  0.81384001  0.03402218  1
