# generated using pymatgen
data_PdI2
_symmetry_space_group_name_H-M   'P 1'
_cell_length_a   6.79839623
_cell_length_b   8.50078016
_cell_length_c   6.91648987
_cell_angle_alpha   90.00000000
_cell_angle_beta   104.44796022
_cell_angle_gamma   90.00000000
_symmetry_Int_Tables_number   1
_chemical_formula_structural   PdI2
_chemical_formula_sum   'Pd4 I8'
_cell_volume   387.07437084
_cell_formula_units_Z   4
loop_
 _symmetry_equiv_pos_site_id
 _symmetry_equiv_pos_as_xyz
  1  'x, y, z'
loop_
 _atom_site_type_symbol
 _atom_site_label
 _atom_site_symmetry_multiplicity
 _atom_site_fract_x
 _atom_site_fract_y
 _atom_site_fract_z
 _atom_site_occupancy
  Pd  Pd0  1  0.24183458  0.37435418  -0.00030307  1
  Pd  Pd1  1  0.75816542  0.87435418  0.50030307  1
  Pd  Pd2  1  0.75816542  0.62564582  0.00030307  1
  Pd  Pd3  1  0.24183458  0.12564582  0.49969693  1
  I  I4  1  0.01516659  0.90599189  0.27155006  1
  I  I5  1  0.98483341  0.40599189  0.22844994  1
  I  I6  1  0.98483341  0.09400811  0.72844994  1
  I  I7  1  0.01516659  0.59400811  0.77155006  1
  I  I8  1  0.53331952  0.65812185  0.26222899  1
  I  I9  1  0.46668048  0.15812185  0.23777101  1
  I  I10  1  0.46668048  0.34187815  0.73777101  1
  I  I11  1  0.53331952  0.84187815  0.76222899  1
