# generated using pymatgen
data_NbTlBr4O
_symmetry_space_group_name_H-M   'P 1'
_cell_length_a   4.01491424
_cell_length_b   6.85395267
_cell_length_c   7.71303478
_cell_angle_alpha   106.87410369
_cell_angle_beta   90.00000000
_cell_angle_gamma   107.03108113
_symmetry_Int_Tables_number   1
_chemical_formula_structural   NbTlBr4O
_chemical_formula_sum   'Nb1 Tl1 Br4 O1'
_cell_volume   193.36189943
_cell_formula_units_Z   1
loop_
 _symmetry_equiv_pos_site_id
 _symmetry_equiv_pos_as_xyz
  1  'x, y, z'
loop_
 _atom_site_type_symbol
 _atom_site_label
 _atom_site_symmetry_multiplicity
 _atom_site_fract_x
 _atom_site_fract_y
 _atom_site_fract_z
 _atom_site_occupancy
  Nb  Nb0  1  0.54827255  0.00000000  0.50000000  1
  Tl  Tl1  1  -0.00255288  0.00000000  0.00000000  1
  Br  Br2  1  0.63572669  0.29464225  0.80890133  1
  Br  Br3  1  0.34514542  0.71394455  0.66388622  1
  Br  Br4  1  0.34108443  0.70535775  0.19109867  1
  Br  Br5  1  0.63120087  0.28605545  0.33611378  1
  O  O6  1  0.00042292  0.00000000  0.50000000  1
