# generated using pymatgen
data_HgIBr
_symmetry_space_group_name_H-M   'P 1'
_cell_length_a   4.33186953
_cell_length_b   4.33186892
_cell_length_c   13.03931896
_cell_angle_alpha   90.00000000
_cell_angle_beta   90.00000000
_cell_angle_gamma   116.39721006
_symmetry_Int_Tables_number   1
_chemical_formula_structural   HgIBr
_chemical_formula_sum   'Hg2 I2 Br2'
_cell_volume   219.17163941
_cell_formula_units_Z   2
loop_
 _symmetry_equiv_pos_site_id
 _symmetry_equiv_pos_as_xyz
  1  'x, y, z'
loop_
 _atom_site_type_symbol
 _atom_site_label
 _atom_site_symmetry_multiplicity
 _atom_site_fract_x
 _atom_site_fract_y
 _atom_site_fract_z
 _atom_site_occupancy
  Hg  Hg0  1  0.84403189  0.15596811  0.00119390  1
  Hg  Hg1  1  0.15596811  0.84403189  0.50119390  1
  I  I2  1  0.89266305  0.10733695  0.64169291  1
  I  I3  1  0.10733695  0.89266305  0.14169291  1
  Br  Br4  1  0.59335852  0.40664148  0.86911318  1
  Br  Br5  1  0.40664148  0.59335852  0.36911318  1
