# generated using pymatgen
data_Te3As2
_symmetry_space_group_name_H-M   'P 1'
_cell_length_a   10.16277855
_cell_length_b   10.16277867
_cell_length_c   10.16277845
_cell_angle_alpha   23.36382358
_cell_angle_beta   23.36382458
_cell_angle_gamma   23.36381988
_symmetry_Int_Tables_number   1
_chemical_formula_structural   Te3As2
_chemical_formula_sum   'Te3 As2'
_cell_volume   144.93643366
_cell_formula_units_Z   1
loop_
 _symmetry_equiv_pos_site_id
 _symmetry_equiv_pos_as_xyz
  1  'x, y, z'
loop_
 _atom_site_type_symbol
 _atom_site_label
 _atom_site_symmetry_multiplicity
 _atom_site_fract_x
 _atom_site_fract_y
 _atom_site_fract_z
 _atom_site_occupancy
  Te  Te0  1  0.21548026  0.21548026  0.21548026  1
  Te  Te1  1  0.78325474  0.78325474  0.78325474  1
  Te  Te2  1  0.99936600  0.99936600  0.99936600  1
  As  As3  1  0.60297499  0.60297499  0.60297499  1
  As  As4  1  0.39575801  0.39575801  0.39575801  1
