# generated using pymatgen
data_UCO5
_symmetry_space_group_name_H-M   'P 1'
_cell_length_a   4.29646432
_cell_length_b   4.86929584
_cell_length_c   5.59297892
_cell_angle_alpha   115.80465516
_cell_angle_beta   112.58754028
_cell_angle_gamma   89.99999758
_symmetry_Int_Tables_number   1
_chemical_formula_structural   UCO5
_chemical_formula_sum   'U1 C1 O5'
_cell_volume   95.27331836
_cell_formula_units_Z   1
loop_
 _symmetry_equiv_pos_site_id
 _symmetry_equiv_pos_as_xyz
  1  'x, y, z'
loop_
 _atom_site_type_symbol
 _atom_site_label
 _atom_site_symmetry_multiplicity
 _atom_site_fract_x
 _atom_site_fract_y
 _atom_site_fract_z
 _atom_site_occupancy
  U  U0  1  0.99374394  -0.00000000  0.00000000  1
  C  C1  1  0.38122157  0.50000000  -0.00000000  1
  O  O2  1  0.79970347  0.80256301  0.60512603  1
  O  O3  1  0.07800817  0.50000000  0.00000000  1
  O  O4  1  0.19457745  0.19743699  0.39487397  1
  O  O5  1  0.51102270  0.26339706  -0.00000000  1
  O  O6  1  0.51102270  0.73660294  -0.00000000  1
