# generated using pymatgen
data_Ni2SbTe2
_symmetry_space_group_name_H-M   'P 1'
_cell_length_a   3.94397513
_cell_length_b   3.94397475
_cell_length_c   15.96455004
_cell_angle_alpha   90.00000000
_cell_angle_beta   90.00000000
_cell_angle_gamma   119.99999484
_symmetry_Int_Tables_number   1
_chemical_formula_structural   Ni2SbTe2
_chemical_formula_sum   'Ni4 Sb2 Te4'
_cell_volume   215.05801371
_cell_formula_units_Z   2
loop_
 _symmetry_equiv_pos_site_id
 _symmetry_equiv_pos_as_xyz
  1  'x, y, z'
loop_
 _atom_site_type_symbol
 _atom_site_label
 _atom_site_symmetry_multiplicity
 _atom_site_fract_x
 _atom_site_fract_y
 _atom_site_fract_z
 _atom_site_occupancy
  Ni  Ni0  1  0.00000000  0.00000000  0.16628688  1
  Ni  Ni1  1  0.00000000  0.00000000  0.66628688  1
  Ni  Ni2  1  0.00000000  0.00000000  0.83371312  1
  Ni  Ni3  1  0.00000000  0.00000000  0.33371312  1
  Sb  Sb4  1  0.33333300  0.66666700  0.25000000  1
  Sb  Sb5  1  0.66666700  0.33333300  0.75000000  1
  Te  Te6  1  0.33333300  0.66666700  0.58883779  1
  Te  Te7  1  0.66666700  0.33333300  0.08883779  1
  Te  Te8  1  0.66666700  0.33333300  0.41116221  1
  Te  Te9  1  0.33333300  0.66666700  0.91116221  1
