# generated using pymatgen
data_NbBr2O
_symmetry_space_group_name_H-M   'P 1'
_cell_length_a   3.92730044
_cell_length_b   7.07445645
_cell_length_c   7.25444170
_cell_angle_alpha   104.91827615
_cell_angle_beta   105.70169444
_cell_angle_gamma   89.99972823
_symmetry_Int_Tables_number   1
_chemical_formula_structural   NbBr2O
_chemical_formula_sum   'Nb2 Br4 O2'
_cell_volume   186.96606638
_cell_formula_units_Z   2
loop_
 _symmetry_equiv_pos_site_id
 _symmetry_equiv_pos_as_xyz
  1  'x, y, z'
loop_
 _atom_site_type_symbol
 _atom_site_label
 _atom_site_symmetry_multiplicity
 _atom_site_fract_x
 _atom_site_fract_y
 _atom_site_fract_z
 _atom_site_occupancy
  Nb  Nb0  1  0.01246492  0.71494105  0.99922238  1
  Nb  Nb1  1  0.01324298  0.28505529  0.00077361  1
  Br  Br2  1  0.91684597  0.93099948  0.73367474  1
  Br  Br3  1  0.88841968  0.41533325  0.68645927  1
  Br  Br4  1  0.20190333  0.58466908  0.31354055  1
  Br  Br5  1  0.18312281  0.06899927  0.26632599  1
  O  O6  1  0.53719027  0.72123535  0.99758170  1
  O  O7  1  0.53960903  0.27876621  0.00242177  1
