# generated using pymatgen
data_AsI3
_symmetry_space_group_name_H-M   'P 1'
_cell_length_a   7.92772935
_cell_length_b   7.92772984
_cell_length_c   7.92772968
_cell_angle_alpha   53.80329903
_cell_angle_beta   53.80329888
_cell_angle_gamma   53.80329678
_symmetry_Int_Tables_number   1
_chemical_formula_structural   AsI3
_chemical_formula_sum   'As2 I6'
_cell_volume   301.28479609
_cell_formula_units_Z   2
loop_
 _symmetry_equiv_pos_site_id
 _symmetry_equiv_pos_as_xyz
  1  'x, y, z'
loop_
 _atom_site_type_symbol
 _atom_site_label
 _atom_site_symmetry_multiplicity
 _atom_site_fract_x
 _atom_site_fract_y
 _atom_site_fract_z
 _atom_site_occupancy
  As  As0  1  0.17397699  0.17397699  0.17397699  1
  As  As1  1  0.82602301  0.82602301  0.82602301  1
  I  I2  1  0.42073607  0.07204226  0.75616694  1
  I  I3  1  0.75616694  0.42073607  0.07204226  1
  I  I4  1  0.07204226  0.75616694  0.42073607  1
  I  I5  1  0.57926393  0.92795774  0.24383306  1
  I  I6  1  0.24383306  0.57926393  0.92795774  1
  I  I7  1  0.92795774  0.24383306  0.57926393  1
