# generated using pymatgen
data_P4S3
_symmetry_space_group_name_H-M   'P 1'
_cell_length_a   6.45498199
_cell_length_b   9.71741385
_cell_length_c   10.90618070
_cell_angle_alpha   90.00000000
_cell_angle_beta   90.00000000
_cell_angle_gamma   90.00000000
_symmetry_Int_Tables_number   1
_chemical_formula_structural   P4S3
_chemical_formula_sum   'P16 S12'
_cell_volume   684.09816062
_cell_formula_units_Z   4
loop_
 _symmetry_equiv_pos_site_id
 _symmetry_equiv_pos_as_xyz
  1  'x, y, z'
loop_
 _atom_site_type_symbol
 _atom_site_label
 _atom_site_symmetry_multiplicity
 _atom_site_fract_x
 _atom_site_fract_y
 _atom_site_fract_z
 _atom_site_occupancy
  P  P0  1  0.27401554  0.36773246  0.93065213  1
  P  P1  1  0.27401554  0.13226754  0.93065213  1
  P  P2  1  0.77401554  0.86773246  0.56934787  1
  P  P3  1  0.72598446  0.63226754  0.06934787  1
  P  P4  1  0.89378947  0.75000000  0.91977249  1
  P  P5  1  0.39378947  0.25000000  0.58022751  1
  P  P6  1  0.10621053  0.25000000  0.08022751  1
  P  P7  1  0.60621053  0.75000000  0.41977249  1
  P  P8  1  0.22598446  0.36773246  0.43065213  1
  P  P9  1  0.67631742  0.25000000  0.32388478  1
  P  P10  1  0.82368258  0.25000000  0.82388478  1
  P  P11  1  0.32368258  0.75000000  0.67611522  1
  P  P12  1  0.22598446  0.13226754  0.43065213  1
  P  P13  1  0.72598446  0.86773246  0.06934787  1
  P  P14  1  0.77401554  0.63226754  0.56934787  1
  P  P15  1  0.17631742  0.75000000  0.17611522  1
  S  S16  1  0.70517270  0.25000000  0.51849614  1
  S  S17  1  0.20517270  0.75000000  0.98150386  1
  S  S18  1  0.53569079  0.91701425  0.69582109  1
  S  S19  1  0.03569079  0.08298575  0.80417891  1
  S  S20  1  0.46430921  0.08298575  0.30417891  1
  S  S21  1  0.53569079  0.58298575  0.69582109  1
  S  S22  1  0.03569079  0.41701425  0.80417891  1
  S  S23  1  0.96430921  0.91701425  0.19582109  1
  S  S24  1  0.46430921  0.41701425  0.30417891  1
  S  S25  1  0.79482730  0.25000000  0.01849614  1
  S  S26  1  0.96430921  0.58298575  0.19582109  1
  S  S27  1  0.29482730  0.75000000  0.48150386  1
