# generated using pymatgen
data_SmZnPO
_symmetry_space_group_name_H-M   'P 1'
_cell_length_a   10.55647606
_cell_length_b   10.55647592
_cell_length_c   10.55647578
_cell_angle_alpha   21.61357404
_cell_angle_beta   21.61357602
_cell_angle_gamma   21.61357617
_symmetry_Int_Tables_number   1
_chemical_formula_structural   SmZnPO
_chemical_formula_sum   'Sm2 Zn2 P2 O2'
_cell_volume   139.86675894
_cell_formula_units_Z   2
loop_
 _symmetry_equiv_pos_site_id
 _symmetry_equiv_pos_as_xyz
  1  'x, y, z'
loop_
 _atom_site_type_symbol
 _atom_site_label
 _atom_site_symmetry_multiplicity
 _atom_site_fract_x
 _atom_site_fract_y
 _atom_site_fract_z
 _atom_site_occupancy
  Sm  Sm0  1  0.38063243  0.38063243  0.38063243  1
  Sm  Sm1  1  0.61936783  0.61936783  0.61936783  1
  Zn  Zn2  1  0.19654254  0.19654254  0.19654254  1
  Zn  Zn3  1  0.80345773  0.80345773  0.80345773  1
  P  P4  1  0.11293816  0.11293816  0.11293816  1
  P  P5  1  0.88706206  0.88706206  0.88706206  1
  O  O6  1  0.69475625  0.69475625  0.69475625  1
  O  O7  1  0.30524400  0.30524400  0.30524400  1
