# generated using pymatgen
data_TlSbO3
_symmetry_space_group_name_H-M   'P 1'
_cell_length_a   7.73804371
_cell_length_b   7.73804392
_cell_length_c   7.73804337
_cell_angle_alpha   40.93017223
_cell_angle_beta   40.93017050
_cell_angle_gamma   40.93017698
_symmetry_Int_Tables_number   1
_chemical_formula_structural   TlSbO3
_chemical_formula_sum   'Tl2 Sb2 O6'
_cell_volume   179.50726026
_cell_formula_units_Z   2
loop_
 _symmetry_equiv_pos_site_id
 _symmetry_equiv_pos_as_xyz
  1  'x, y, z'
loop_
 _atom_site_type_symbol
 _atom_site_label
 _atom_site_symmetry_multiplicity
 _atom_site_fract_x
 _atom_site_fract_y
 _atom_site_fract_z
 _atom_site_occupancy
  Tl  Tl0  1  0.62462658  0.62462658  0.62462658  1
  Tl  Tl1  1  0.37537342  0.37537342  0.37537342  1
  Sb  Sb2  1  0.83359856  0.83359856  0.83359856  1
  Sb  Sb3  1  0.16640144  0.16640144  0.16640144  1
  O  O4  1  0.82991270  0.44726990  0.06350380  1
  O  O5  1  0.44726990  0.06350380  0.82991270  1
  O  O6  1  0.06350380  0.82991270  0.44726990  1
  O  O7  1  0.17008730  0.55273010  0.93649620  1
  O  O8  1  0.93649620  0.17008730  0.55273010  1
  O  O9  1  0.55273010  0.93649620  0.17008730  1
