# generated using pymatgen
data_Al2FeS4
_symmetry_space_group_name_H-M   'P 1'
_cell_length_a   3.54534294
_cell_length_b   3.54534294
_cell_length_c   12.11643276
_cell_angle_alpha   81.58725669
_cell_angle_beta   81.58725669
_cell_angle_gamma   60.00000646
_symmetry_Int_Tables_number   1
_chemical_formula_structural   Al2FeS4
_chemical_formula_sum   'Al2 Fe1 S4'
_cell_volume   129.99735746
_cell_formula_units_Z   1
loop_
 _symmetry_equiv_pos_site_id
 _symmetry_equiv_pos_as_xyz
  1  'x, y, z'
loop_
 _atom_site_type_symbol
 _atom_site_label
 _atom_site_symmetry_multiplicity
 _atom_site_fract_x
 _atom_site_fract_y
 _atom_site_fract_z
 _atom_site_occupancy
  Al  Al0  1  0.69987154  0.69987154  0.90038537  1
  Al  Al1  1  0.46857740  0.46857740  0.59426880  1
  Fe  Fe2  1  0.93695907  0.93695907  0.18912378  1
  S  S3  1  -0.00026921  -0.00026921  0.00080662  1
  S  S4  1  0.82964913  0.82964913  0.51105161  1
  S  S5  1  0.58605087  0.58605087  0.24184638  1
  S  S6  1  0.40636119  0.40636119  0.78091744  1
