# generated using pymatgen
data_Ba(BSe3)2
_symmetry_space_group_name_H-M   'P 1'
_cell_length_a   6.88192712
_cell_length_b   6.88192757
_cell_length_c   10.29798731
_cell_angle_alpha   90.00000000
_cell_angle_beta   90.00000000
_cell_angle_gamma   111.53168816
_symmetry_Int_Tables_number   1
_chemical_formula_structural   Ba(BSe3)2
_chemical_formula_sum   'Ba2 B4 Se12'
_cell_volume   453.68636809
_cell_formula_units_Z   2
loop_
 _symmetry_equiv_pos_site_id
 _symmetry_equiv_pos_as_xyz
  1  'x, y, z'
loop_
 _atom_site_type_symbol
 _atom_site_label
 _atom_site_symmetry_multiplicity
 _atom_site_fract_x
 _atom_site_fract_y
 _atom_site_fract_z
 _atom_site_occupancy
  Ba  Ba0  1  0.50000000  0.50000000  0.50000000  1
  Ba  Ba1  1  0.00000000  0.00000000  0.00000000  1
  B  B2  1  0.61382416  0.38617584  0.00000000  1
  B  B3  1  0.38617584  0.61382416  0.00000000  1
  B  B4  1  0.88617584  0.11382416  0.50000000  1
  B  B5  1  0.11382416  0.88617584  0.50000000  1
  Se  Se6  1  0.60090500  0.60090500  0.85980739  1
  Se  Se7  1  0.10090500  0.10090500  0.64019261  1
  Se  Se8  1  0.10737504  0.52410905  0.90425461  1
  Se  Se9  1  0.60737504  0.02410905  0.59574539  1
  Se  Se10  1  0.47589095  0.89262496  0.09574539  1
  Se  Se11  1  0.52410905  0.10737504  0.90425461  1
  Se  Se12  1  0.97589095  0.39262496  0.40425461  1
  Se  Se13  1  0.89909500  0.89909500  0.35980739  1
  Se  Se14  1  0.39909500  0.39909500  0.14019261  1
  Se  Se15  1  0.89262496  0.47589095  0.09574539  1
  Se  Se16  1  0.02410905  0.60737504  0.59574539  1
  Se  Se17  1  0.39262496  0.97589095  0.40425461  1
