# generated using pymatgen
data_NiP2
_symmetry_space_group_name_H-M   'P 1'
_cell_length_a   4.29803631
_cell_length_b   4.29803610
_cell_length_c   5.65457306
_cell_angle_alpha   68.29732189
_cell_angle_beta   68.29732582
_cell_angle_gamma   81.94178642
_symmetry_Int_Tables_number   1
_chemical_formula_structural   NiP2
_chemical_formula_sum   'Ni2 P4'
_cell_volume   90.17283950
_cell_formula_units_Z   2
loop_
 _symmetry_equiv_pos_site_id
 _symmetry_equiv_pos_as_xyz
  1  'x, y, z'
loop_
 _atom_site_type_symbol
 _atom_site_label
 _atom_site_symmetry_multiplicity
 _atom_site_fract_x
 _atom_site_fract_y
 _atom_site_fract_z
 _atom_site_occupancy
  Ni  Ni0  1  0.50000000  0.50000000  0.50000000  1
  Ni  Ni1  1  0.00000000  0.00000000  0.00000000  1
  P  P2  1  0.91790251  0.18846189  0.33398799  1
  P  P3  1  0.31153811  0.58209749  0.16601201  1
  P  P4  1  0.68846189  0.41790251  0.83398799  1
  P  P5  1  0.08209749  0.81153811  0.66601201  1
