# generated using pymatgen
data_PbO
_symmetry_space_group_name_H-M   'P 1'
_cell_length_a   4.81245011
_cell_length_b   5.55100304
_cell_length_c   5.95713832
_cell_angle_alpha   90.00000000
_cell_angle_beta   90.00000000
_cell_angle_gamma   90.00000000
_symmetry_Int_Tables_number   1
_chemical_formula_structural   PbO
_chemical_formula_sum   'Pb4 O4'
_cell_volume   159.13854734
_cell_formula_units_Z   4
loop_
 _symmetry_equiv_pos_site_id
 _symmetry_equiv_pos_as_xyz
  1  'x, y, z'
loop_
 _atom_site_type_symbol
 _atom_site_label
 _atom_site_symmetry_multiplicity
 _atom_site_fract_x
 _atom_site_fract_y
 _atom_site_fract_z
 _atom_site_occupancy
  Pb  Pb0  1  0.75000000  0.01045651  0.22968304  1
  Pb  Pb1  1  0.25000000  0.98954349  0.77031696  1
  Pb  Pb2  1  0.75000000  0.51045651  0.77031696  1
  Pb  Pb3  1  0.25000000  0.48954349  0.22968304  1
  O  O4  1  0.75000000  0.91155608  0.86118162  1
  O  O5  1  0.25000000  0.08844392  0.13881838  1
  O  O6  1  0.75000000  0.41155608  0.13881838  1
  O  O7  1  0.25000000  0.58844392  0.86118162  1
