# generated using pymatgen
data_Pb2O3
_symmetry_space_group_name_H-M   'P 1'
_cell_length_a   4.82500764
_cell_length_b   4.82606340
_cell_length_c   6.76016397
_cell_angle_alpha   90.00000000
_cell_angle_beta   90.01475150
_cell_angle_gamma   90.00000000
_symmetry_Int_Tables_number   1
_chemical_formula_structural   Pb2O3
_chemical_formula_sum   'Pb4 O6'
_cell_volume   157.41577204
_cell_formula_units_Z   2
loop_
 _symmetry_equiv_pos_site_id
 _symmetry_equiv_pos_as_xyz
  1  'x, y, z'
loop_
 _atom_site_type_symbol
 _atom_site_label
 _atom_site_symmetry_multiplicity
 _atom_site_fract_x
 _atom_site_fract_y
 _atom_site_fract_z
 _atom_site_occupancy
  Pb  Pb0  1  0.24998476  0.75000000  -0.00003448  1
  Pb  Pb1  1  0.75001524  0.25000000  0.00003448  1
  Pb  Pb2  1  0.25000717  0.25000000  0.57891288  1
  Pb  Pb3  1  0.74999283  0.75000000  0.42108712  1
  O  O4  1  0.24989623  0.75000000  0.69828683  1
  O  O5  1  0.25010459  0.25000000  0.96363046  1
  O  O6  1  0.74989541  0.75000000  0.03636954  1
  O  O7  1  0.24993361  0.75000000  0.30164335  1
  O  O8  1  0.75010377  0.25000000  0.30171317  1
  O  O9  1  0.75006639  0.25000000  0.69835665  1
