# generated using pymatgen
data_SiAs2
_symmetry_space_group_name_H-M   'P 1'
_cell_length_a   15.01117182
_cell_length_b   10.24249008
_cell_length_c   3.71182855
_cell_angle_alpha   90.00000000
_cell_angle_beta   90.00000000
_cell_angle_gamma   90.00000000
_symmetry_Int_Tables_number   1
_chemical_formula_structural   SiAs2
_chemical_formula_sum   'Si8 As16'
_cell_volume   570.70024170
_cell_formula_units_Z   8
loop_
 _symmetry_equiv_pos_site_id
 _symmetry_equiv_pos_as_xyz
  1  'x, y, z'
loop_
 _atom_site_type_symbol
 _atom_site_label
 _atom_site_symmetry_multiplicity
 _atom_site_fract_x
 _atom_site_fract_y
 _atom_site_fract_z
 _atom_site_occupancy
  Si  Si0  1  0.26488564  0.19615522  0.50000100  1
  Si  Si1  1  0.73511536  0.80384378  0.50000100  1
  Si  Si2  1  0.76488464  0.30384478  0.50000100  1
  Si  Si3  1  0.23511536  0.69615522  0.50000100  1
  Si  Si4  1  0.14366094  0.41352851  0.00000000  1
  Si  Si5  1  0.85634006  0.58647049  0.00000000  1
  Si  Si6  1  0.64365994  0.08647049  0.00000000  1
  Si  Si7  1  0.35633906  0.91352851  0.00000000  1
  As  As8  1  0.70490882  0.65888616  0.00000000  1
  As  As9  1  0.29509018  0.34111484  0.00000000  1
  As  As10  1  0.10671190  0.55356642  0.50000100  1
  As  As11  1  0.89328810  0.44643258  0.50000100  1
  As  As12  1  0.60671090  0.94643158  0.50000100  1
  As  As13  1  0.39328810  0.05356742  0.50000100  1
  As  As14  1  0.45843936  0.73055058  0.00000000  1
  As  As15  1  0.38657509  0.60046716  0.50000100  1
  As  As16  1  0.95843936  0.76944942  0.00000000  1
  As  As17  1  0.04156064  0.23055058  0.00000000  1
  As  As18  1  0.79509018  0.15888616  0.00000000  1
  As  As19  1  0.61342391  0.39953284  0.50000100  1
  As  As20  1  0.88657609  0.89953384  0.50000100  1
  As  As21  1  0.11342391  0.10046716  0.50000100  1
  As  As22  1  0.54155964  0.26945042  0.00000000  1
  As  As23  1  0.20490982  0.84111384  0.00000000  1
