# generated using pymatgen
data_HfS3
_symmetry_space_group_name_H-M   'P 1'
_cell_length_a   5.12303424
_cell_length_b   3.60454635
_cell_length_c   9.01586295
_cell_angle_alpha   90.00000000
_cell_angle_beta   97.20048482
_cell_angle_gamma   90.00000000
_symmetry_Int_Tables_number   1
_chemical_formula_structural   HfS3
_chemical_formula_sum   'Hf2 S6'
_cell_volume   165.17586682
_cell_formula_units_Z   2
loop_
 _symmetry_equiv_pos_site_id
 _symmetry_equiv_pos_as_xyz
  1  'x, y, z'
loop_
 _atom_site_type_symbol
 _atom_site_label
 _atom_site_symmetry_multiplicity
 _atom_site_fract_x
 _atom_site_fract_y
 _atom_site_fract_z
 _atom_site_occupancy
  Hf  Hf0  1  0.71606386  0.25000000  0.34533423  1
  Hf  Hf1  1  0.28393614  0.75000000  0.65466577  1
  S  S2  1  0.12048339  0.25000000  0.83022886  1
  S  S3  1  0.87951661  0.75000000  0.16977114  1
  S  S4  1  0.76202105  0.75000000  0.55343439  1
  S  S5  1  0.23797895  0.25000000  0.44656561  1
  S  S6  1  0.47106198  0.75000000  0.17275119  1
  S  S7  1  0.52893802  0.25000000  0.82724881  1
