# generated using pymatgen
data_PrIO
_symmetry_space_group_name_H-M   'P 1'
_cell_length_a   4.12070936
_cell_length_b   4.12070936
_cell_length_c   9.22859826
_cell_angle_alpha   90.00000000
_cell_angle_beta   90.00000000
_cell_angle_gamma   90.00000000
_symmetry_Int_Tables_number   1
_chemical_formula_structural   PrIO
_chemical_formula_sum   'Pr2 I2 O2'
_cell_volume   156.70386516
_cell_formula_units_Z   2
loop_
 _symmetry_equiv_pos_site_id
 _symmetry_equiv_pos_as_xyz
  1  'x, y, z'
loop_
 _atom_site_type_symbol
 _atom_site_label
 _atom_site_symmetry_multiplicity
 _atom_site_fract_x
 _atom_site_fract_y
 _atom_site_fract_z
 _atom_site_occupancy
  Pr  Pr0  1  0.00000000  0.50000000  0.87143736  1
  Pr  Pr1  1  0.50000000  0.00000000  0.12856264  1
  I  I2  1  0.50000000  0.00000000  0.66777762  1
  I  I3  1  0.00000000  0.50000000  0.33222238  1
  O  O4  1  0.00000000  0.00000000  0.00000000  1
  O  O5  1  0.50000000  0.50000000  0.00000000  1
