# generated using pymatgen
data_AlBiO3
_symmetry_space_group_name_H-M   'P 1'
_cell_length_a   7.21343202
_cell_length_b   5.06929441
_cell_length_c   8.31250296
_cell_angle_alpha   90.00000000
_cell_angle_beta   115.20718564
_cell_angle_gamma   90.00000000
_symmetry_Int_Tables_number   1
_chemical_formula_structural   AlBiO3
_chemical_formula_sum   'Al4 Bi4 O12'
_cell_volume   275.01805952
_cell_formula_units_Z   4
loop_
 _symmetry_equiv_pos_site_id
 _symmetry_equiv_pos_as_xyz
  1  'x, y, z'
loop_
 _atom_site_type_symbol
 _atom_site_label
 _atom_site_symmetry_multiplicity
 _atom_site_fract_x
 _atom_site_fract_y
 _atom_site_fract_z
 _atom_site_occupancy
  Al  Al0  1  0.09181924  0.73951844  0.50806844  1
  Al  Al1  1  0.09181924  0.76048156  0.00806844  1
  Al  Al2  1  0.90818076  0.23951844  0.99193156  1
  Al  Al3  1  0.90818076  0.26048156  0.49193156  1
  Bi  Bi4  1  0.29796670  0.23443573  0.88084541  1
  Bi  Bi5  1  0.29796670  0.26556427  0.38084541  1
  Bi  Bi6  1  0.70203330  0.73443573  0.61915459  1
  Bi  Bi7  1  0.70203330  0.76556427  0.11915459  1
  O  O8  1  0.97686403  0.04706743  0.83856959  1
  O  O9  1  0.65554444  0.36095953  0.47092073  1
  O  O10  1  0.82966022  0.57791783  0.90011990  1
  O  O11  1  0.34445556  0.86095953  0.02907927  1
  O  O12  1  0.65554444  0.13904047  0.97092073  1
  O  O13  1  0.17033978  0.07791783  0.59988010  1
  O  O14  1  0.34445556  0.63904047  0.52907927  1
  O  O15  1  0.02313597  0.95293257  0.16143041  1
  O  O16  1  0.82966022  0.92208217  0.40011990  1
  O  O17  1  0.02313597  0.54706743  0.66143041  1
  O  O18  1  0.17033978  0.42208217  0.09988010  1
  O  O19  1  0.97686403  0.45293257  0.33856959  1
