# generated using pymatgen
data_As2O3
_symmetry_space_group_name_H-M   'P 1'
_cell_length_a   4.54599785
_cell_length_b   12.89882714
_cell_length_c   6.76054015
_cell_angle_alpha   90.00000000
_cell_angle_beta   127.19108572
_cell_angle_gamma   90.00000000
_symmetry_Int_Tables_number   1
_chemical_formula_structural   As2O3
_chemical_formula_sum   'As8 O12'
_cell_volume   315.80152117
_cell_formula_units_Z   4
loop_
 _symmetry_equiv_pos_site_id
 _symmetry_equiv_pos_as_xyz
  1  'x, y, z'
loop_
 _atom_site_type_symbol
 _atom_site_label
 _atom_site_symmetry_multiplicity
 _atom_site_fract_x
 _atom_site_fract_y
 _atom_site_fract_z
 _atom_site_occupancy
  As  As0  1  0.63956791  0.85179664  0.13952484  1
  As  As1  1  0.36043209  0.35179664  0.36047516  1
  As  As2  1  0.36043209  0.14820336  0.86047516  1
  As  As3  1  0.63956791  0.64820336  0.63952484  1
  As  As4  1  0.77342332  0.59658431  0.23243340  1
  As  As5  1  0.22657668  0.09658431  0.26756660  1
  As  As6  1  0.22657668  0.40341569  0.76756660  1
  As  As7  1  0.77342332  0.90341569  0.73243340  1
  O  O8  1  0.37511494  0.28408065  0.94498508  1
  O  O9  1  0.62488506  0.78408065  0.55501492  1
  O  O10  1  0.47971379  0.59769770  0.33271978  1
  O  O11  1  0.52028621  0.09769770  0.16728022  1
  O  O12  1  0.52028621  0.40230230  0.66728022  1
  O  O13  1  0.83276184  0.13888077  0.95725431  1
  O  O14  1  0.16723816  0.86111923  0.04274569  1
  O  O15  1  0.83276184  0.36111923  0.45725431  1
  O  O16  1  0.37511494  0.21591935  0.44498508  1
  O  O17  1  0.16723816  0.63888077  0.54274569  1
  O  O18  1  0.47971379  0.90230230  0.83271978  1
  O  O19  1  0.62488506  0.71591935  0.05501492  1
