# generated using pymatgen
data_TeAuCl7
_symmetry_space_group_name_H-M   'P 1'
_cell_length_a   7.54903456
_cell_length_b   7.51441970
_cell_length_c   9.06316375
_cell_angle_alpha   101.99613527
_cell_angle_beta   91.90833942
_cell_angle_gamma   87.61415026
_symmetry_Int_Tables_number   1
_chemical_formula_structural   TeAuCl7
_chemical_formula_sum   'Te2 Au2 Cl14'
_cell_volume   502.29922464
_cell_formula_units_Z   2
loop_
 _symmetry_equiv_pos_site_id
 _symmetry_equiv_pos_as_xyz
  1  'x, y, z'
loop_
 _atom_site_type_symbol
 _atom_site_label
 _atom_site_symmetry_multiplicity
 _atom_site_fract_x
 _atom_site_fract_y
 _atom_site_fract_z
 _atom_site_occupancy
  Te  Te0  1  0.31949868  0.22490204  0.77522058  1
  Te  Te1  1  0.68050132  0.77509796  0.22477942  1
  Au  Au2  1  0.07435570  0.78197067  0.55342019  1
  Au  Au3  1  0.92564430  0.21802933  0.44657981  1
  Cl  Cl4  1  0.79687638  0.67597234  -0.01767249  1
  Cl  Cl5  1  0.20312362  0.32402766  0.01767249  1
  Cl  Cl6  1  0.10179461  0.90709612  0.80902369  1
  Cl  Cl7  1  0.89820539  0.09290388  0.19097631  1
  Cl  Cl8  1  0.77751877  0.73244076  0.57602116  1
  Cl  Cl9  1  0.22248123  0.26755924  0.42397884  1
  Cl  Cl10  1  0.95167383  0.33708435  0.70347630  1
  Cl  Cl11  1  0.57912336  0.48469014  0.23134616  1
  Cl  Cl12  1  0.37116609  0.83758138  0.53340496  1
  Cl  Cl13  1  0.62883391  0.16241862  0.46659504  1
  Cl  Cl14  1  0.40851127  0.88068307  0.13140769  1
  Cl  Cl15  1  0.59148873  0.11931693  0.86859231  1
  Cl  Cl16  1  0.04832617  0.66291565  0.29652370  1
  Cl  Cl17  1  0.42087664  0.51530986  0.76865384  1
