# generated using pymatgen
data_Ge3Sb2O9
_symmetry_space_group_name_H-M   'P 1'
_cell_length_a   7.10673548
_cell_length_b   7.10673548
_cell_length_c   9.75263510
_cell_angle_alpha   90.00000000
_cell_angle_beta   90.00000000
_cell_angle_gamma   120.00000636
_symmetry_Int_Tables_number   1
_chemical_formula_structural   Ge3Sb2O9
_chemical_formula_sum   'Ge6 Sb4 O18'
_cell_volume   426.57252571
_cell_formula_units_Z   2
loop_
 _symmetry_equiv_pos_site_id
 _symmetry_equiv_pos_as_xyz
  1  'x, y, z'
loop_
 _atom_site_type_symbol
 _atom_site_label
 _atom_site_symmetry_multiplicity
 _atom_site_fract_x
 _atom_site_fract_y
 _atom_site_fract_z
 _atom_site_occupancy
  Ge  Ge0  1  0.21015044  0.91850113  0.25000000  1
  Ge  Ge1  1  0.29164831  0.21015044  0.75000000  1
  Ge  Ge2  1  0.91850113  0.70835169  0.75000000  1
  Ge  Ge3  1  0.08149887  0.29164831  0.25000000  1
  Ge  Ge4  1  0.78984956  0.08149887  0.75000000  1
  Ge  Ge5  1  0.70835169  0.78984956  0.25000000  1
  Sb  Sb6  1  0.66666700  0.33333300  0.01810592  1
  Sb  Sb7  1  0.33333300  0.66666700  0.51810592  1
  Sb  Sb8  1  0.66666700  0.33333300  0.48189408  1
  Sb  Sb9  1  0.33333300  0.66666700  0.98189408  1
  O  O10  1  0.09337272  0.43328561  0.09909973  1
  O  O11  1  0.19520256  0.92623854  0.75000000  1
  O  O12  1  0.80479744  0.07376146  0.25000000  1
  O  O13  1  0.92623854  0.73103598  0.25000000  1
  O  O14  1  0.73103598  0.80479744  0.75000000  1
  O  O15  1  0.66008711  0.09337272  0.59909973  1
  O  O16  1  0.56671439  0.66008711  0.09909973  1
  O  O17  1  0.90662728  0.56671439  0.59909973  1
  O  O18  1  0.90662728  0.56671439  0.90090027  1
  O  O19  1  0.33991289  0.90662728  0.09909973  1
  O  O20  1  0.33991289  0.90662728  0.40090027  1
  O  O21  1  0.43328561  0.33991289  0.90090027  1
  O  O22  1  0.07376146  0.26896402  0.75000000  1
  O  O23  1  0.09337272  0.43328561  0.40090027  1
  O  O24  1  0.56671439  0.66008711  0.40090027  1
  O  O25  1  0.66008711  0.09337272  0.90090027  1
  O  O26  1  0.43328561  0.33991289  0.59909973  1
  O  O27  1  0.26896402  0.19520256  0.25000000  1
