# generated using pymatgen
data_Hf3Te2
_symmetry_space_group_name_H-M   'P 1'
_cell_length_a   3.70245176
_cell_length_b   3.70245129
_cell_length_c   9.53806779
_cell_angle_alpha   101.19146406
_cell_angle_beta   101.19146318
_cell_angle_gamma   90.00000552
_symmetry_Int_Tables_number   1
_chemical_formula_structural   Hf3Te2
_chemical_formula_sum   'Hf3 Te2'
_cell_volume   125.72744608
_cell_formula_units_Z   1
loop_
 _symmetry_equiv_pos_site_id
 _symmetry_equiv_pos_as_xyz
  1  'x, y, z'
loop_
 _atom_site_type_symbol
 _atom_site_label
 _atom_site_symmetry_multiplicity
 _atom_site_fract_x
 _atom_site_fract_y
 _atom_site_fract_z
 _atom_site_occupancy
  Hf  Hf0  1  0.40772999  0.40772999  0.81545898  1
  Hf  Hf1  1  0.59227001  0.59227001  0.18454102  1
  Hf  Hf2  1  0.00000000  0.00000000  0.00000000  1
  Te  Te3  1  0.83426165  0.83426165  0.66852430  1
  Te  Te4  1  0.16573835  0.16573835  0.33147570  1
