# generated using pymatgen
data_Ge(BiTe2)2
_symmetry_space_group_name_H-M   'P 1'
_cell_length_a   14.18254824
_cell_length_b   14.18254824
_cell_length_c   14.18254795
_cell_angle_alpha   17.82444520
_cell_angle_beta   17.82444551
_cell_angle_gamma   17.82444363
_symmetry_Int_Tables_number   1
_chemical_formula_structural   Ge(BiTe2)2
_chemical_formula_sum   'Ge1 Bi2 Te4'
_cell_volume   233.35240221
_cell_formula_units_Z   1
loop_
 _symmetry_equiv_pos_site_id
 _symmetry_equiv_pos_as_xyz
  1  'x, y, z'
loop_
 _atom_site_type_symbol
 _atom_site_label
 _atom_site_symmetry_multiplicity
 _atom_site_fract_x
 _atom_site_fract_y
 _atom_site_fract_z
 _atom_site_occupancy
  Ge  Ge0  1  0.00000000  0.00000000  0.00000000  1
  Bi  Bi1  1  0.42362569  0.42362569  0.42362569  1
  Bi  Bi2  1  0.57637431  0.57637431  0.57637431  1
  Te  Te3  1  0.13229722  0.13229722  0.13229722  1
  Te  Te4  1  0.70667470  0.70667470  0.70667470  1
  Te  Te5  1  0.86770278  0.86770278  0.86770278  1
  Te  Te6  1  0.29332530  0.29332530  0.29332530  1
