# generated using pymatgen
data_HfCl4
_symmetry_space_group_name_H-M   'P 1'
_cell_length_a   6.18447945
_cell_length_b   7.33625027
_cell_length_c   6.27894087
_cell_angle_alpha   90.00000000
_cell_angle_beta   108.94909110
_cell_angle_gamma   90.00000000
_symmetry_Int_Tables_number   1
_chemical_formula_structural   HfCl4
_chemical_formula_sum   'Hf2 Cl8'
_cell_volume   269.44270303
_cell_formula_units_Z   2
loop_
 _symmetry_equiv_pos_site_id
 _symmetry_equiv_pos_as_xyz
  1  'x, y, z'
loop_
 _atom_site_type_symbol
 _atom_site_label
 _atom_site_symmetry_multiplicity
 _atom_site_fract_x
 _atom_site_fract_y
 _atom_site_fract_z
 _atom_site_occupancy
  Hf  Hf0  1  0.75000000  0.33461205  -0.00000000  1
  Hf  Hf1  1  0.25000000  0.66538795  -0.00000000  1
  Cl  Cl2  1  0.99719708  0.60939854  0.23003261  1
  Cl  Cl3  1  0.50280292  0.60939854  0.76996739  1
  Cl  Cl4  1  0.48374504  0.86658760  0.25611724  1
  Cl  Cl5  1  0.01625496  0.86658760  0.74388276  1
  Cl  Cl6  1  0.51625496  0.13341240  0.74388276  1
  Cl  Cl7  1  0.98374504  0.13341240  0.25611724  1
  Cl  Cl8  1  0.49719708  0.39060146  0.23003261  1
  Cl  Cl9  1  0.00280292  0.39060146  0.76996739  1
