# generated using pymatgen
data_GeSe
_symmetry_space_group_name_H-M   'P 1'
_cell_length_a   3.89687767
_cell_length_b   4.47869710
_cell_length_c   11.15167012
_cell_angle_alpha   90.00000000
_cell_angle_beta   90.00000000
_cell_angle_gamma   90.00000000
_symmetry_Int_Tables_number   1
_chemical_formula_structural   GeSe
_chemical_formula_sum   'Ge4 Se4'
_cell_volume   194.62937066
_cell_formula_units_Z   4
loop_
 _symmetry_equiv_pos_site_id
 _symmetry_equiv_pos_as_xyz
  1  'x, y, z'
loop_
 _atom_site_type_symbol
 _atom_site_label
 _atom_site_symmetry_multiplicity
 _atom_site_fract_x
 _atom_site_fract_y
 _atom_site_fract_z
 _atom_site_occupancy
  Ge  Ge0  1  0.25000000  0.12127797  0.12529682  1
  Ge  Ge1  1  0.75000000  0.87872203  0.87470318  1
  Ge  Ge2  1  0.75000000  0.62127797  0.37470318  1
  Ge  Ge3  1  0.25000000  0.37872203  0.62529682  1
  Se  Se4  1  0.25000000  0.49305896  0.85357584  1
  Se  Se5  1  0.75000000  0.50694104  0.14642416  1
  Se  Se6  1  0.75000000  -0.00694104  0.64642416  1
  Se  Se7  1  0.25000000  0.00694104  0.35357684  1
