# generated using pymatgen
data_C3N4
_symmetry_space_group_name_H-M   'P 1'
_cell_length_a   7.13344168
_cell_length_b   7.13344132
_cell_length_c   6.06841373
_cell_angle_alpha   90.00000000
_cell_angle_beta   90.00000000
_cell_angle_gamma   120.00136174
_symmetry_Int_Tables_number   1
_chemical_formula_structural   C3N4
_chemical_formula_sum   'C12 N16'
_cell_volume   267.42257282
_cell_formula_units_Z   4
loop_
 _symmetry_equiv_pos_site_id
 _symmetry_equiv_pos_as_xyz
  1  'x, y, z'
loop_
 _atom_site_type_symbol
 _atom_site_label
 _atom_site_symmetry_multiplicity
 _atom_site_fract_x
 _atom_site_fract_y
 _atom_site_fract_z
 _atom_site_occupancy
  C  C0  1  0.25173456  0.10537400  0.00000000  1
  C  C1  1  0.22488500  0.13222356  0.50000000  1
  C  C2  1  0.21446198  0.44844934  0.50000000  1
  C  C3  1  0.55134636  0.44865364  0.50000000  1
  C  C4  1  0.55155066  0.78553802  0.50000000  1
  C  C5  1  0.86777644  0.77511500  0.50000000  1
  C  C6  1  0.22550248  0.77449752  0.50000000  1
  C  C7  1  0.90505002  0.43203866  0.00000000  1
  C  C8  1  0.89400852  0.10599148  0.00000000  1
  C  C9  1  0.56816564  0.43183436  0.00000000  1
  C  C10  1  0.56796134  0.09494998  0.00000000  1
  C  C11  1  0.89462600  0.74826544  0.00000000  1
  N  N12  1  0.10628823  0.89371177  0.50000000  1
  N  N13  1  0.11097244  0.55924813  0.50000000  1
  N  N14  1  0.44075187  0.88902756  0.50000000  1
  N  N15  1  0.43909357  0.56090643  0.50000000  1
  N  N16  1  0.76726252  0.88913615  0.50000000  1
  N  N17  1  0.76647446  0.55900860  0.50000000  1
  N  N18  1  0.67851960  0.64696346  0.00000000  1
  N  N19  1  0.35303654  0.32148040  0.00000000  1
  N  N20  1  0.00853856  0.32124087  0.00000000  1
  N  N21  1  0.67875913  0.99146144  0.00000000  1
  N  N22  1  0.68041743  0.31958257  0.00000000  1
  N  N23  1  0.35224848  0.99135285  0.00000000  1
  N  N24  1  0.11086385  0.23273748  0.50000000  1
  N  N25  1  0.01322277  0.98677723  0.00000000  1
  N  N26  1  0.00864715  0.64775152  0.00000000  1
  N  N27  1  0.44099140  0.23352554  0.50000000  1
