# generated using pymatgen
data_CaSn
_symmetry_space_group_name_H-M   'P 1'
_cell_length_a   4.77501536
_cell_length_b   4.37325827
_cell_length_c   6.23037218
_cell_angle_alpha   90.00000000
_cell_angle_beta   112.53231694
_cell_angle_gamma   90.00000000
_symmetry_Int_Tables_number   1
_chemical_formula_structural   CaSn
_chemical_formula_sum   'Ca2 Sn2'
_cell_volume   120.17321782
_cell_formula_units_Z   2
loop_
 _symmetry_equiv_pos_site_id
 _symmetry_equiv_pos_as_xyz
  1  'x, y, z'
loop_
 _atom_site_type_symbol
 _atom_site_label
 _atom_site_symmetry_multiplicity
 _atom_site_fract_x
 _atom_site_fract_y
 _atom_site_fract_z
 _atom_site_occupancy
  Ca  Ca0  1  0.13307243  0.75000000  0.26614586  1
  Ca  Ca1  1  0.86692757  0.25000000  0.73385414  1
  Sn  Sn2  1  0.41336484  0.75000000  0.82673069  1
  Sn  Sn3  1  0.58663516  0.25000000  0.17326931  1
