# generated using pymatgen
data_LuH2ClO2
_symmetry_space_group_name_H-M   'P 1'
_cell_length_a   12.60165102
_cell_length_b   3.48611474
_cell_length_c   6.16193399
_cell_angle_alpha   90.00000000
_cell_angle_beta   90.00000000
_cell_angle_gamma   90.00000000
_symmetry_Int_Tables_number   1
_chemical_formula_structural   LuH2ClO2
_chemical_formula_sum   'Lu4 H8 Cl4 O8'
_cell_volume   270.69869836
_cell_formula_units_Z   4
loop_
 _symmetry_equiv_pos_site_id
 _symmetry_equiv_pos_as_xyz
  1  'x, y, z'
loop_
 _atom_site_type_symbol
 _atom_site_label
 _atom_site_symmetry_multiplicity
 _atom_site_fract_x
 _atom_site_fract_y
 _atom_site_fract_z
 _atom_site_occupancy
  Lu  Lu0  1  0.05165671  0.75000000  0.24967688  1
  Lu  Lu1  1  0.55165771  0.75000000  0.25032312  1
  Lu  Lu2  1  0.44834329  0.24999900  0.74967688  1
  Lu  Lu3  1  0.94834229  0.24999900  0.75032312  1
  H  H4  1  0.62026966  0.75000000  0.81053321  1
  H  H5  1  0.12027066  0.75000000  0.68946679  1
  H  H6  1  0.65465018  0.24999900  0.54594652  1
  H  H7  1  0.15465018  0.24999900  0.95405248  1
  H  H8  1  0.87973034  0.24999900  0.31053321  1
  H  H9  1  0.37972934  0.24999900  0.18946679  1
  H  H10  1  0.84534882  0.75000000  0.04594652  1
  H  H11  1  0.34534882  0.75000000  0.45405348  1
  Cl  Cl12  1  0.71232459  0.24999900  0.11588125  1
  Cl  Cl13  1  0.21232459  0.24999900  0.38411875  1
  Cl  Cl14  1  0.78767441  0.75000000  0.61588125  1
  Cl  Cl15  1  0.28767541  0.75000000  0.88411775  1
  O  O16  1  0.54779957  0.75000000  0.86998078  1
  O  O17  1  0.08020707  0.24999900  0.00138707  1
  O  O18  1  0.45220043  0.24999900  0.13001922  1
  O  O19  1  0.95220043  0.24999900  0.36998078  1
  O  O20  1  0.58020807  0.24999900  0.49861293  1
  O  O21  1  0.41979293  0.75000000  0.50138707  1
  O  O22  1  0.04780057  0.75000000  0.63001922  1
  O  O23  1  0.91979193  0.75000000  0.99861293  1
