# generated using pymatgen
data_AsCl3
_symmetry_space_group_name_H-M   'P 1'
_cell_length_a   4.08680348
_cell_length_b   9.46237046
_cell_length_c   11.40043771
_cell_angle_alpha   90.00000000
_cell_angle_beta   90.00000000
_cell_angle_gamma   90.00000000
_symmetry_Int_Tables_number   1
_chemical_formula_structural   AsCl3
_chemical_formula_sum   'As4 Cl12'
_cell_volume   440.86460011
_cell_formula_units_Z   4
loop_
 _symmetry_equiv_pos_site_id
 _symmetry_equiv_pos_as_xyz
  1  'x, y, z'
loop_
 _atom_site_type_symbol
 _atom_site_label
 _atom_site_symmetry_multiplicity
 _atom_site_fract_x
 _atom_site_fract_y
 _atom_site_fract_z
 _atom_site_occupancy
  As  As0  1  -0.00516616  0.69803597  0.78769673  1
  As  As1  1  0.49483384  0.80196403  0.21230327  1
  As  As2  1  0.00516616  0.19803597  0.71230327  1
  As  As3  1  0.50516616  0.30196403  0.28769673  1
  Cl  Cl4  1  0.25470297  0.51513494  0.86776408  1
  Cl  Cl5  1  0.75470297  0.98486506  0.13223592  1
  Cl  Cl6  1  0.74529703  0.01513494  0.63223592  1
  Cl  Cl7  1  0.24529703  0.48486506  0.36776408  1
  Cl  Cl8  1  0.22677906  0.29728713  0.12006274  1
  Cl  Cl9  1  0.72677906  0.20271287  0.87993726  1
  Cl  Cl10  1  0.77322094  0.79728713  0.37993726  1
  Cl  Cl11  1  0.27322094  0.70271287  0.62006274  1
  Cl  Cl12  1  0.23240968  0.13274814  0.38331309  1
  Cl  Cl13  1  0.73240968  0.36725186  0.61668691  1
  Cl  Cl14  1  0.76759032  0.63274814  0.11668691  1
  Cl  Cl15  1  0.26759032  0.86725186  0.88331309  1
