# generated using pymatgen
data_LuTe3
_symmetry_space_group_name_H-M   'P 1'
_cell_length_a   3.99174750
_cell_length_b   4.57787420
_cell_length_c   13.92365637
_cell_angle_alpha   90.00000000
_cell_angle_beta   98.24140043
_cell_angle_gamma   90.00000000
_symmetry_Int_Tables_number   1
_chemical_formula_structural   LuTe3
_chemical_formula_sum   'Lu2 Te6'
_cell_volume   251.80937564
_cell_formula_units_Z   2
loop_
 _symmetry_equiv_pos_site_id
 _symmetry_equiv_pos_as_xyz
  1  'x, y, z'
loop_
 _atom_site_type_symbol
 _atom_site_label
 _atom_site_symmetry_multiplicity
 _atom_site_fract_x
 _atom_site_fract_y
 _atom_site_fract_z
 _atom_site_occupancy
  Lu  Lu0  1  0.94999376  0.25000000  0.89998752  1
  Lu  Lu1  1  0.05000624  0.75000000  0.10001248  1
  Te  Te2  1  0.83713056  0.25000000  0.67426213  1
  Te  Te3  1  0.16286944  0.75000000  0.32573787  1
  Te  Te4  1  0.68703919  0.25000000  0.37407838  1
  Te  Te5  1  0.31296081  0.75000000  0.62592162  1
  Te  Te6  1  0.55236663  0.25000000  0.10473325  1
  Te  Te7  1  0.44763337  0.75000000  0.89526675  1
