# generated using pymatgen
data_NbO2
_symmetry_space_group_name_H-M   'P 1'
_cell_length_a   3.00848956
_cell_length_b   3.00852884
_cell_length_c   9.61108078
_cell_angle_alpha   90.00391010
_cell_angle_beta   89.99738017
_cell_angle_gamma   120.00061478
_symmetry_Int_Tables_number   1
_chemical_formula_structural   NbO2
_chemical_formula_sum   'Nb2 O4'
_cell_volume   75.33605181
_cell_formula_units_Z   2
loop_
 _symmetry_equiv_pos_site_id
 _symmetry_equiv_pos_as_xyz
  1  'x, y, z'
loop_
 _atom_site_type_symbol
 _atom_site_label
 _atom_site_symmetry_multiplicity
 _atom_site_fract_x
 _atom_site_fract_y
 _atom_site_fract_z
 _atom_site_occupancy
  Nb  Nb0  1  0.66660994  0.33329741  0.24999848  1
  Nb  Nb1  1  0.33339183  0.66667077  0.75000134  1
  O  O2  1  0.66672146  0.33335177  0.87332230  1
  O  O3  1  0.66665712  0.33327726  0.62668152  1
  O  O4  1  0.33334745  0.66668383  0.37331761  1
  O  O5  1  0.33327320  0.66661896  0.12667875  1
