# generated using pymatgen
data_In2Se3
_symmetry_space_group_name_H-M   'P 1'
_cell_length_a   4.01020558
_cell_length_b   4.01018019
_cell_length_c   9.51466601
_cell_angle_alpha   89.99989409
_cell_angle_beta   90.00041349
_cell_angle_gamma   119.99989868
_symmetry_Int_Tables_number   1
_chemical_formula_structural   In2Se3
_chemical_formula_sum   'In2 Se3'
_cell_volume   132.51198119
_cell_formula_units_Z   1
loop_
 _symmetry_equiv_pos_site_id
 _symmetry_equiv_pos_as_xyz
  1  'x, y, z'
loop_
 _atom_site_type_symbol
 _atom_site_label
 _atom_site_symmetry_multiplicity
 _atom_site_fract_x
 _atom_site_fract_y
 _atom_site_fract_z
 _atom_site_occupancy
  In  In0  1  0.66668042  0.33334050  0.19730046  1
  In  In1  1  0.33331958  0.66665950  0.80269954  1
  Se  Se2  1  0.00000000  0.00000000  0.00000000  1
  Se  Se3  1  0.66664299  0.33332197  0.66102791  1
  Se  Se4  1  0.33335701  0.66667803  0.33897209  1
