# generated using pymatgen
data_CdPS3
_symmetry_space_group_name_H-M   'P 1'
_cell_length_a   6.26530651
_cell_length_b   6.26530710
_cell_length_c   6.91057022
_cell_angle_alpha   98.62744996
_cell_angle_beta   98.62745532
_cell_angle_gamma   119.99276593
_symmetry_Int_Tables_number   1
_chemical_formula_structural   CdPS3
_chemical_formula_sum   'Cd2 P2 S6'
_cell_volume   224.12156567
_cell_formula_units_Z   2
loop_
 _symmetry_equiv_pos_site_id
 _symmetry_equiv_pos_as_xyz
  1  'x, y, z'
loop_
 _atom_site_type_symbol
 _atom_site_label
 _atom_site_symmetry_multiplicity
 _atom_site_fract_x
 _atom_site_fract_y
 _atom_site_fract_z
 _atom_site_occupancy
  Cd  Cd0  1  0.33181581  0.66818419  0.00000000  1
  Cd  Cd1  1  0.66818419  0.33181581  -0.00000000  1
  P  P2  1  0.05609292  0.05609292  0.17228074  1
  P  P3  1  0.94390708  0.94390708  0.82771926  1
  S  S4  1  0.39768495  0.08455487  0.26136035  1
  S  S5  1  0.91544513  0.60231505  0.73863965  1
  S  S6  1  0.23092543  0.23092543  0.74423000  1
  S  S7  1  0.76907457  0.76907457  0.25577000  1
  S  S8  1  0.60231505  0.91544513  0.73863965  1
  S  S9  1  0.08455487  0.39768495  0.26136035  1
