# generated using pymatgen
data_BI3
_symmetry_space_group_name_H-M   'P 1'
_cell_length_a   6.98915803
_cell_length_b   6.98915803
_cell_length_c   7.21091085
_cell_angle_alpha   90.00000000
_cell_angle_beta   90.00000000
_cell_angle_gamma   119.99999708
_symmetry_Int_Tables_number   1
_chemical_formula_structural   BI3
_chemical_formula_sum   'B2 I6'
_cell_volume   305.04962178
_cell_formula_units_Z   2
loop_
 _symmetry_equiv_pos_site_id
 _symmetry_equiv_pos_as_xyz
  1  'x, y, z'
loop_
 _atom_site_type_symbol
 _atom_site_label
 _atom_site_symmetry_multiplicity
 _atom_site_fract_x
 _atom_site_fract_y
 _atom_site_fract_z
 _atom_site_occupancy
  B  B0  1  0.33333300  0.66666700  0.75000000  1
  B  B1  1  0.66666700  0.33333300  0.25000000  1
  I  I2  1  0.03755469  0.68331198  0.75000000  1
  I  I3  1  0.68331198  0.64575728  0.25000000  1
  I  I4  1  0.35424272  0.03755469  0.25000000  1
  I  I5  1  0.64575728  0.96244531  0.75000000  1
  I  I6  1  0.31668802  0.35424272  0.75000000  1
  I  I7  1  0.96244531  0.31668802  0.25000000  1
