# generated using pymatgen
data_SnSe
_symmetry_space_group_name_H-M   'P 1'
_cell_length_a   4.21334781
_cell_length_b   4.52039951
_cell_length_c   11.77817624
_cell_angle_alpha   90.00000000
_cell_angle_beta   90.00000000
_cell_angle_gamma   90.00000000
_symmetry_Int_Tables_number   1
_chemical_formula_structural   SnSe
_chemical_formula_sum   'Sn4 Se4'
_cell_volume   224.32732554
_cell_formula_units_Z   4
loop_
 _symmetry_equiv_pos_site_id
 _symmetry_equiv_pos_as_xyz
  1  'x, y, z'
loop_
 _atom_site_type_symbol
 _atom_site_label
 _atom_site_symmetry_multiplicity
 _atom_site_fract_x
 _atom_site_fract_y
 _atom_site_fract_z
 _atom_site_occupancy
  Sn  Sn0  1  0.75000000  0.38571361  0.62084059  1
  Sn  Sn1  1  0.25000000  0.61428639  0.37915941  1
  Sn  Sn2  1  0.25000000  0.88571361  0.87915941  1
  Sn  Sn3  1  0.75000000  0.11428639  0.12084059  1
  Se  Se4  1  0.75000000  0.02777077  0.35527582  1
  Se  Se5  1  0.25000000  0.97222923  0.64472418  1
  Se  Se6  1  0.25000000  0.52777077  0.14472418  1
  Se  Se7  1  0.75000000  0.47222923  0.85527582  1
