# generated using pymatgen
data_YbSe
_symmetry_space_group_name_H-M   'P 1'
_cell_length_a   4.94448451
_cell_length_b   4.94448451
_cell_length_c   5.82864369
_cell_angle_alpha   90.00000000
_cell_angle_beta   90.00000000
_cell_angle_gamma   119.99999894
_symmetry_Int_Tables_number   1
_chemical_formula_structural   YbSe
_chemical_formula_sum   'Yb2 Se2'
_cell_volume   123.40711079
_cell_formula_units_Z   2
loop_
 _symmetry_equiv_pos_site_id
 _symmetry_equiv_pos_as_xyz
  1  'x, y, z'
loop_
 _atom_site_type_symbol
 _atom_site_label
 _atom_site_symmetry_multiplicity
 _atom_site_fract_x
 _atom_site_fract_y
 _atom_site_fract_z
 _atom_site_occupancy
  Yb  Yb0  1  0.66666700  0.33333300  0.56249418  1
  Yb  Yb1  1  0.33333300  0.66666700  0.06249418  1
  Se  Se2  1  0.66666700  0.33333300  0.06250582  1
  Se  Se3  1  0.33333300  0.66666700  0.56250582  1
