# generated using pymatgen
data_NbS2
_symmetry_space_group_name_H-M   'P 1'
_cell_length_a   3.36076735
_cell_length_b   3.36296213
_cell_length_c   14.86935050
_cell_angle_alpha   90.00000095
_cell_angle_beta   89.99999903
_cell_angle_gamma   119.97840911
_symmetry_Int_Tables_number   1
_chemical_formula_structural   NbS2
_chemical_formula_sum   'Nb1 S2'
_cell_volume   145.57188373
_cell_formula_units_Z   1
loop_
 _symmetry_equiv_pos_site_id
 _symmetry_equiv_pos_as_xyz
  1  'x, y, z'
loop_
 _atom_site_type_symbol
 _atom_site_label
 _atom_site_symmetry_multiplicity
 _atom_site_fract_x
 _atom_site_fract_y
 _atom_site_fract_z
 _atom_site_occupancy
  Nb  Nb0  1  0.91991650  0.83983311  0.50000015  1
  S  S1  1  0.25314176  0.50628345  0.60567370  1
  S  S2  1  0.25314175  0.50628344  0.39432615  1
