# generated using pymatgen
data_SmBr3
_symmetry_space_group_name_H-M   'P 1'
_cell_length_a   4.04197432
_cell_length_b   6.68503607
_cell_length_c   9.13264154
_cell_angle_alpha   90.00000000
_cell_angle_beta   90.00000000
_cell_angle_gamma   107.59670489
_symmetry_Int_Tables_number   1
_chemical_formula_structural   SmBr3
_chemical_formula_sum   'Sm2 Br6'
_cell_volume   235.22388609
_cell_formula_units_Z   2
loop_
 _symmetry_equiv_pos_site_id
 _symmetry_equiv_pos_as_xyz
  1  'x, y, z'
loop_
 _atom_site_type_symbol
 _atom_site_label
 _atom_site_symmetry_multiplicity
 _atom_site_fract_x
 _atom_site_fract_y
 _atom_site_fract_z
 _atom_site_occupancy
  Sm  Sm0  1  0.74279024  0.48557948  0.25000000  1
  Sm  Sm1  1  0.25720976  0.51442052  0.75000000  1
  Br  Br2  1  0.35444844  0.70889588  0.43430552  1
  Br  Br3  1  0.64555156  0.29110412  0.56569448  1
  Br  Br4  1  0.91802695  0.83605291  0.75000000  1
  Br  Br5  1  0.08197305  0.16394709  0.25000000  1
  Br  Br6  1  0.35444844  0.70889588  0.06569448  1
  Br  Br7  1  0.64555156  0.29110412  0.93430552  1
