# generated using pymatgen
data_VClO
_symmetry_space_group_name_H-M   'P 1'
_cell_length_a   3.33916716
_cell_length_b   3.76667675
_cell_length_c   7.81400230
_cell_angle_alpha   90.00000000
_cell_angle_beta   90.00000000
_cell_angle_gamma   90.00000000
_symmetry_Int_Tables_number   1
_chemical_formula_structural   VClO
_chemical_formula_sum   'V2 Cl2 O2'
_cell_volume   98.28110844
_cell_formula_units_Z   2
loop_
 _symmetry_equiv_pos_site_id
 _symmetry_equiv_pos_as_xyz
  1  'x, y, z'
loop_
 _atom_site_type_symbol
 _atom_site_label
 _atom_site_symmetry_multiplicity
 _atom_site_fract_x
 _atom_site_fract_y
 _atom_site_fract_z
 _atom_site_occupancy
  V  V0  1  0.50000000  0.00000000  0.61709670  1
  V  V1  1  0.00000000  0.50000000  0.38290330  1
  Cl  Cl2  1  0.50000000  0.50000000  0.16835032  1
  Cl  Cl3  1  0.00000000  0.00000000  0.83164968  1
  O  O4  1  0.00000000  0.00000000  0.45104778  1
  O  O5  1  0.50000000  0.50000000  0.54895222  1
