# generated using pymatgen
data_BiSeI
_symmetry_space_group_name_H-M   'P 1'
_cell_length_a   4.25832271
_cell_length_b   8.82406005
_cell_length_c   10.73993672
_cell_angle_alpha   90.00000000
_cell_angle_beta   90.00000000
_cell_angle_gamma   90.00000000
_symmetry_Int_Tables_number   1
_chemical_formula_structural   BiSeI
_chemical_formula_sum   'Bi4 Se4 I4'
_cell_volume   403.56058969
_cell_formula_units_Z   4
loop_
 _symmetry_equiv_pos_site_id
 _symmetry_equiv_pos_as_xyz
  1  'x, y, z'
loop_
 _atom_site_type_symbol
 _atom_site_label
 _atom_site_symmetry_multiplicity
 _atom_site_fract_x
 _atom_site_fract_y
 _atom_site_fract_z
 _atom_site_occupancy
  Bi  Bi0  1  0.75000000  0.12822363  0.12875028  1
  Bi  Bi1  1  0.25000000  0.87177637  0.87124972  1
  Bi  Bi2  1  0.75000000  0.62822363  0.37124972  1
  Bi  Bi3  1  0.25000000  0.37177637  0.62875028  1
  Se  Se4  1  0.25000000  0.17033570  0.95008375  1
  Se  Se5  1  0.75000000  0.32966430  0.45008375  1
  Se  Se6  1  0.25000000  0.67033570  0.54991625  1
  Se  Se7  1  0.75000000  0.82966430  0.04991625  1
  I  I8  1  0.25000000  0.48476407  0.17285907  1
  I  I9  1  0.75000000  0.01523593  0.67285907  1
  I  I10  1  0.25000000  0.98476407  0.32714093  1
  I  I11  1  0.75000000  0.51523593  0.82714093  1
