# generated using pymatgen
data_Pt(SCl3)2
_symmetry_space_group_name_H-M   'P 1'
_cell_length_a   4.90558529
_cell_length_b   6.06106815
_cell_length_c   8.04099579
_cell_angle_alpha   101.92354901
_cell_angle_beta   96.96790113
_cell_angle_gamma   100.57722825
_symmetry_Int_Tables_number   1
_chemical_formula_structural   Pt(SCl3)2
_chemical_formula_sum   'Pt1 S2 Cl6'
_cell_volume   226.77694044
_cell_formula_units_Z   1
loop_
 _symmetry_equiv_pos_site_id
 _symmetry_equiv_pos_as_xyz
  1  'x, y, z'
loop_
 _atom_site_type_symbol
 _atom_site_label
 _atom_site_symmetry_multiplicity
 _atom_site_fract_x
 _atom_site_fract_y
 _atom_site_fract_z
 _atom_site_occupancy
  Pt  Pt0  1  0.50000000  0.50000000  0.50000000  1
  S  S1  1  0.20795384  0.21871808  0.28640467  1
  S  S2  1  0.79204616  0.78128192  0.71359533  1
  Cl  Cl3  1  0.56068348  0.03494227  0.73850127  1
  Cl  Cl4  1  0.17454395  0.39282276  0.67243911  1
  Cl  Cl5  1  0.82545605  0.60717724  0.32756089  1
  Cl  Cl6  1  0.21855650  0.30832115  0.05476921  1
  Cl  Cl7  1  0.78144350  0.69167885  0.94523079  1
  Cl  Cl8  1  0.43931652  -0.03494227  0.26149873  1
