# generated using pymatgen
data_HAuO2
_symmetry_space_group_name_H-M   'P 1'
_cell_length_a   4.09155208
_cell_length_b   4.67268852
_cell_length_c   5.44537272
_cell_angle_alpha   92.16016111
_cell_angle_beta   90.54023550
_cell_angle_gamma   113.92507336
_symmetry_Int_Tables_number   1
_chemical_formula_structural   HAuO2
_chemical_formula_sum   'H2 Au2 O4'
_cell_volume   95.05989735
_cell_formula_units_Z   2
loop_
 _symmetry_equiv_pos_site_id
 _symmetry_equiv_pos_as_xyz
  1  'x, y, z'
loop_
 _atom_site_type_symbol
 _atom_site_label
 _atom_site_symmetry_multiplicity
 _atom_site_fract_x
 _atom_site_fract_y
 _atom_site_fract_z
 _atom_site_occupancy
  H  H0  1  0.92015951  0.97227036  0.24829294  1
  H  H1  1  0.07984049  0.02772964  0.75170706  1
  Au  Au2  1  -0.00000000  0.50000000  -0.00000000  1
  Au  Au3  1  0.50000000  0.50000000  0.50000000  1
  O  O4  1  0.24761167  0.28107973  0.79921825  1
  O  O5  1  0.95094021  0.72270136  0.70281226  1
  O  O6  1  0.75238833  0.71892027  0.20078175  1
  O  O7  1  0.04905979  0.27729864  0.29718774  1
