# generated using pymatgen
data_NdGe2
_symmetry_space_group_name_H-M   'P 1'
_cell_length_a   4.14173943
_cell_length_b   4.14173952
_cell_length_c   8.68994965
_cell_angle_alpha   103.78659955
_cell_angle_beta   103.78659988
_cell_angle_gamma   89.99999927
_symmetry_Int_Tables_number   1
_chemical_formula_structural   NdGe2
_chemical_formula_sum   'Nd2 Ge4'
_cell_volume   140.34683870
_cell_formula_units_Z   2
loop_
 _symmetry_equiv_pos_site_id
 _symmetry_equiv_pos_as_xyz
  1  'x, y, z'
loop_
 _atom_site_type_symbol
 _atom_site_label
 _atom_site_symmetry_multiplicity
 _atom_site_fract_x
 _atom_site_fract_y
 _atom_site_fract_z
 _atom_site_occupancy
  Nd  Nd0  1  0.87500000  0.62500000  0.25000000  1
  Nd  Nd1  1  0.12500000  0.37500000  0.75000000  1
  Ge  Ge2  1  0.70446240  0.95446240  0.90892379  1
  Ge  Ge3  1  0.45446240  0.20446240  0.40892379  1
  Ge  Ge4  1  0.54553760  0.79553760  0.59107621  1
  Ge  Ge5  1  0.29553760  0.04553760  0.09107621  1
