# generated using pymatgen
data_TbCl
_symmetry_space_group_name_H-M   'P 1'
_cell_length_a   9.50201042
_cell_length_b   9.50201053
_cell_length_c   9.50200991
_cell_angle_alpha   22.66380081
_cell_angle_beta   22.66379683
_cell_angle_gamma   22.66380110
_symmetry_Int_Tables_number   1
_chemical_formula_structural   TbCl
_chemical_formula_sum   'Tb2 Cl2'
_cell_volume   111.75081779
_cell_formula_units_Z   2
loop_
 _symmetry_equiv_pos_site_id
 _symmetry_equiv_pos_as_xyz
  1  'x, y, z'
loop_
 _atom_site_type_symbol
 _atom_site_label
 _atom_site_symmetry_multiplicity
 _atom_site_fract_x
 _atom_site_fract_y
 _atom_site_fract_z
 _atom_site_occupancy
  Tb  Tb0  1  0.21682335  0.21682335  0.21682335  1
  Tb  Tb1  1  0.78317665  0.78317665  0.78317665  1
  Cl  Cl2  1  0.38674573  0.38674573  0.38674573  1
  Cl  Cl3  1  0.61325427  0.61325427  0.61325427  1
