# generated using pymatgen
data_PdCl2
_symmetry_space_group_name_H-M   'P 1'
_cell_length_a   5.48789086
_cell_length_b   3.95413239
_cell_length_c   6.49607252
_cell_angle_alpha   90.00000000
_cell_angle_beta   107.62407023
_cell_angle_gamma   90.00000000
_symmetry_Int_Tables_number   1
_chemical_formula_structural   PdCl2
_chemical_formula_sum   'Pd2 Cl4'
_cell_volume   134.34744126
_cell_formula_units_Z   2
loop_
 _symmetry_equiv_pos_site_id
 _symmetry_equiv_pos_as_xyz
  1  'x, y, z'
loop_
 _atom_site_type_symbol
 _atom_site_label
 _atom_site_symmetry_multiplicity
 _atom_site_fract_x
 _atom_site_fract_y
 _atom_site_fract_z
 _atom_site_occupancy
  Pd  Pd0  1  0.00000000  0.00000000  0.50000000  1
  Pd  Pd1  1  0.00000000  0.50000000  0.00000000  1
  Cl  Cl2  1  0.25787703  0.24752634  0.31529478  1
  Cl  Cl3  1  0.74212297  0.74752634  0.18470522  1
  Cl  Cl4  1  0.74212297  0.75247366  0.68470522  1
  Cl  Cl5  1  0.25787703  0.25247366  0.81529478  1
