# generated using pymatgen
data_GaAg(PSe3)2
_symmetry_space_group_name_H-M   'P 1'
_cell_length_a   6.44085938
_cell_length_b   6.44085938
_cell_length_c   13.40489119
_cell_angle_alpha   90.00000000
_cell_angle_beta   90.00000000
_cell_angle_gamma   119.99999315
_symmetry_Int_Tables_number   1
_chemical_formula_structural   GaAg(PSe3)2
_chemical_formula_sum   'Ga2 Ag2 P4 Se12'
_cell_volume   481.59457878
_cell_formula_units_Z   2
loop_
 _symmetry_equiv_pos_site_id
 _symmetry_equiv_pos_as_xyz
  1  'x, y, z'
loop_
 _atom_site_type_symbol
 _atom_site_label
 _atom_site_symmetry_multiplicity
 _atom_site_fract_x
 _atom_site_fract_y
 _atom_site_fract_z
 _atom_site_occupancy
  Ga  Ga0  1  0.00000000  0.00000000  0.75000000  1
  Ga  Ga1  1  0.00000000  0.00000000  0.25000000  1
  Ag  Ag2  1  0.66666700  0.33333300  0.25000000  1
  Ag  Ag3  1  0.33333300  0.66666700  0.75000000  1
  P  P4  1  0.33333300  0.66666700  0.33475938  1
  P  P5  1  0.33333300  0.66666700  0.16524062  1
  P  P6  1  0.66666700  0.33333300  0.66524062  1
  P  P7  1  0.66666700  0.33333300  0.83475938  1
  Se  Se8  1  0.68018170  0.98449325  0.37967241  1
  Se  Se9  1  0.30431155  0.31981830  0.37967241  1
  Se  Se10  1  0.01550675  0.69568845  0.37967241  1
  Se  Se11  1  0.68018170  0.69568845  0.12032759  1
  Se  Se12  1  0.30431155  0.98449325  0.12032759  1
  Se  Se13  1  0.98449325  0.30431155  0.62032759  1
  Se  Se14  1  0.31981830  0.01550675  0.62032759  1
  Se  Se15  1  0.98449325  0.68018170  0.87967241  1
  Se  Se16  1  0.69568845  0.68018170  0.62032759  1
  Se  Se17  1  0.69568845  0.01550675  0.87967241  1
  Se  Se18  1  0.01550675  0.31981830  0.12032759  1
  Se  Se19  1  0.31981830  0.30431155  0.87967241  1
