# generated using pymatgen
data_PI2
_symmetry_space_group_name_H-M   'P 1'
_cell_length_a   4.51719199
_cell_length_b   7.39537092
_cell_length_c   7.00088152
_cell_angle_alpha   80.72915255
_cell_angle_beta   83.42106017
_cell_angle_gamma   73.68442727
_symmetry_Int_Tables_number   1
_chemical_formula_structural   PI2
_chemical_formula_sum   'P2 I4'
_cell_volume   220.92947834
_cell_formula_units_Z   2
loop_
 _symmetry_equiv_pos_site_id
 _symmetry_equiv_pos_as_xyz
  1  'x, y, z'
loop_
 _atom_site_type_symbol
 _atom_site_label
 _atom_site_symmetry_multiplicity
 _atom_site_fract_x
 _atom_site_fract_y
 _atom_site_fract_z
 _atom_site_occupancy
  P  P0  1  0.40069307  0.03854072  0.85285826  1
  P  P1  1  0.59930693  0.96145928  0.14714174  1
  I  I2  1  0.57193222  0.33913471  0.77210343  1
  I  I3  1  0.42806778  0.66086529  0.22789657  1
  I  I4  1  0.83211537  0.79970399  0.69566333  1
  I  I5  1  0.16788463  0.20029601  0.30433667  1
