# generated using pymatgen
data_SiSb3
_symmetry_space_group_name_H-M   'P 1'
_cell_length_a   6.62544244
_cell_length_b   6.62544150
_cell_length_c   5.43245237
_cell_angle_alpha   90.00000000
_cell_angle_beta   90.00000000
_cell_angle_gamma   119.99999930
_symmetry_Int_Tables_number   1
_chemical_formula_structural   SiSb3
_chemical_formula_sum   'Si2 Sb6'
_cell_volume   206.51722064
_cell_formula_units_Z   2
loop_
 _symmetry_equiv_pos_site_id
 _symmetry_equiv_pos_as_xyz
  1  'x, y, z'
loop_
 _atom_site_type_symbol
 _atom_site_label
 _atom_site_symmetry_multiplicity
 _atom_site_fract_x
 _atom_site_fract_y
 _atom_site_fract_z
 _atom_site_occupancy
  Si  Si0  1  0.33333400  0.66666800  0.75000000  1
  Si  Si1  1  0.66666500  0.33333200  0.25000100  1
  Sb  Sb2  1  0.17749621  0.35499342  0.25000100  1
  Sb  Sb3  1  0.64500558  0.82250279  0.25000100  1
  Sb  Sb4  1  0.17749621  0.82250279  0.25000100  1
  Sb  Sb5  1  0.82250279  0.64500658  0.75000000  1
  Sb  Sb6  1  0.35499442  0.17749721  0.75000000  1
  Sb  Sb7  1  0.82250279  0.17749721  0.75000000  1
