# generated using pymatgen
data_TiCl3
_symmetry_space_group_name_H-M   'P 1'
_cell_length_a   6.01996603
_cell_length_b   5.99366424
_cell_length_c   17.61740252
_cell_angle_alpha   89.85104506
_cell_angle_beta   89.70338138
_cell_angle_gamma   59.85474200
_symmetry_Int_Tables_number   1
_chemical_formula_structural   TiCl3
_chemical_formula_sum   'Ti6 Cl18'
_cell_volume   549.68716105
_cell_formula_units_Z   6
loop_
 _symmetry_equiv_pos_site_id
 _symmetry_equiv_pos_as_xyz
  1  'x, y, z'
loop_
 _atom_site_type_symbol
 _atom_site_label
 _atom_site_symmetry_multiplicity
 _atom_site_fract_x
 _atom_site_fract_y
 _atom_site_fract_z
 _atom_site_occupancy
  Ti  Ti0  1  0.32880157  0.67764234  0.33327815  1
  Ti  Ti1  1  0.67119843  0.32235766  0.66672185  1
  Ti  Ti2  1  0.33882240  0.32235620  0.00000000  1
  Ti  Ti3  1  0.99355509  0.67764234  0.66672185  1
  Ti  Ti4  1  0.66117760  0.67764380  -0.00000000  1
  Ti  Ti5  1  0.00644491  0.32235766  0.33327815  1
  Cl  Cl6  1  0.99971791  0.34225968  0.07841329  1
  Cl  Cl7  1  0.66730832  0.34226066  0.41169332  1
  Cl  Cl8  1  0.32566817  0.34224944  0.25486346  1
  Cl  Cl9  1  0.01137868  -0.00000000  0.25100611  1
  Cl  Cl10  1  0.00028209  0.65774032  0.92158671  1
  Cl  Cl11  1  0.34197859  0.65774032  0.07841329  1
  Cl  Cl12  1  0.33269168  0.65773934  0.58830668  1
  Cl  Cl13  1  0.00956898  0.65773934  0.41169332  1
  Cl  Cl14  1  0.34370785  -0.00000000  0.91774394  1
  Cl  Cl15  1  0.99043102  0.34226066  0.58830668  1
  Cl  Cl16  1  0.65629215  0.00000000  0.08225606  1
  Cl  Cl17  1  0.32383223  0.00000000  0.41555492  1
  Cl  Cl18  1  0.67616777  -0.00000000  0.58444508  1
  Cl  Cl19  1  0.98862132  0.00000000  0.74899389  1
  Cl  Cl20  1  0.67433183  0.65775056  0.74513654  1
  Cl  Cl21  1  0.65802141  0.34225968  0.92158671  1
  Cl  Cl22  1  0.33208138  0.34224944  0.74513654  1
  Cl  Cl23  1  0.66791862  0.65775056  0.25486346  1
