# generated using pymatgen
data_SiP2
_symmetry_space_group_name_H-M   'P 1'
_cell_length_a   3.47987221
_cell_length_b   9.94599712
_cell_length_c   14.47918320
_cell_angle_alpha   90.00000000
_cell_angle_beta   90.00000000
_cell_angle_gamma   90.00000000
_symmetry_Int_Tables_number   1
_chemical_formula_structural   SiP2
_chemical_formula_sum   'Si8 P16'
_cell_volume   501.13609830
_cell_formula_units_Z   8
loop_
 _symmetry_equiv_pos_site_id
 _symmetry_equiv_pos_as_xyz
  1  'x, y, z'
loop_
 _atom_site_type_symbol
 _atom_site_label
 _atom_site_symmetry_multiplicity
 _atom_site_fract_x
 _atom_site_fract_y
 _atom_site_fract_z
 _atom_site_occupancy
  Si  Si0  1  0.00000000  0.58944148  0.85255513  1
  Si  Si1  1  0.00000000  0.41055852  0.14744487  1
  Si  Si2  1  0.00000000  0.08944148  0.64744487  1
  Si  Si3  1  0.00000000  0.91055852  0.35255513  1
  Si  Si4  1  0.50000000  0.80663978  0.73378367  1
  Si  Si5  1  0.50000000  0.19336022  0.26621633  1
  Si  Si6  1  0.50000000  0.30663978  0.76621633  1
  Si  Si7  1  0.50000000  0.69336022  0.23378367  1
  P  P8  1  0.50000000  0.04724943  0.38840781  1
  P  P9  1  0.50000000  0.95275057  0.61159219  1
  P  P10  1  0.50000000  0.61061206  0.38688599  1
  P  P11  1  0.50000000  0.38938794  0.61311401  1
  P  P12  1  0.50000000  0.11061206  0.11311401  1
  P  P13  1  0.50000000  0.88938794  0.88688599  1
  P  P14  1  0.00000000  0.72862792  0.45066300  1
  P  P15  1  0.00000000  0.83482324  0.20438676  1
  P  P16  1  0.00000000  0.22862792  0.04933700  1
  P  P17  1  0.00000000  0.77137208  0.95066300  1
  P  P18  1  0.50000000  0.45275057  0.88840781  1
  P  P19  1  0.00000000  0.16517676  0.79561324  1
  P  P20  1  0.00000000  0.33482324  0.29561324  1
  P  P21  1  0.00000000  0.66517676  0.70438676  1
  P  P22  1  0.00000000  0.27137208  0.54933700  1
  P  P23  1  0.50000000  0.54724943  0.11159219  1
