# generated using pymatgen
data_CrBr2
_symmetry_space_group_name_H-M   'P 1'
_cell_length_a   3.65184949
_cell_length_b   4.01550816
_cell_length_c   6.15331812
_cell_angle_alpha   94.13928645
_cell_angle_beta   89.99999951
_cell_angle_gamma   117.04679844
_symmetry_Int_Tables_number   1
_chemical_formula_structural   CrBr2
_chemical_formula_sum   'Cr1 Br2'
_cell_volume   80.09985464
_cell_formula_units_Z   1
loop_
 _symmetry_equiv_pos_site_id
 _symmetry_equiv_pos_as_xyz
  1  'x, y, z'
loop_
 _atom_site_type_symbol
 _atom_site_label
 _atom_site_symmetry_multiplicity
 _atom_site_fract_x
 _atom_site_fract_y
 _atom_site_fract_z
 _atom_site_occupancy
  Cr  Cr0  1  0.00000000  0.00000000  0.00000000  1
  Br  Br1  1  0.64804242  0.29608384  0.24453637  1
  Br  Br2  1  0.35195758  0.70391616  0.75546363  1
