# generated using pymatgen
data_TcS2
_symmetry_space_group_name_H-M   'P 1'
_cell_length_a   6.41997766
_cell_length_b   6.51844688
_cell_length_c   6.72925310
_cell_angle_alpha   63.21472490
_cell_angle_beta   76.44478592
_cell_angle_gamma   61.08708623
_symmetry_Int_Tables_number   1
_chemical_formula_structural   TcS2
_chemical_formula_sum   'Tc4 S8'
_cell_volume   220.00800691
_cell_formula_units_Z   4
loop_
 _symmetry_equiv_pos_site_id
 _symmetry_equiv_pos_as_xyz
  1  'x, y, z'
loop_
 _atom_site_type_symbol
 _atom_site_label
 _atom_site_symmetry_multiplicity
 _atom_site_fract_x
 _atom_site_fract_y
 _atom_site_fract_z
 _atom_site_occupancy
  Tc  Tc0  1  0.51149971  0.28537699  0.50245609  1
  Tc  Tc1  1  0.48850029  0.71462301  0.49754391  1
  Tc  Tc2  1  0.93818314  0.30850067  0.50909350  1
  Tc  Tc3  1  0.06181686  0.69149933  0.49090650  1
  S  S4  1  0.32126212  0.18512714  0.30290396  1
  S  S5  1  0.67873788  0.81487286  0.69709604  1
  S  S6  1  0.85733762  0.16985294  0.27657204  1
  S  S7  1  0.14266238  0.83014706  0.72342796  1
  S  S8  1  0.36133453  0.69004526  0.21258622  1
  S  S9  1  0.63866547  0.30995474  0.78741378  1
  S  S10  1  0.82444262  0.71816718  0.24050794  1
  S  S11  1  0.17555738  0.28183282  0.75949206  1
