# generated using pymatgen
data_AsCl5
_symmetry_space_group_name_H-M   'P 1'
_cell_length_a   6.19302399
_cell_length_b   7.03315059
_cell_length_c   7.61993369
_cell_angle_alpha   90.00000000
_cell_angle_beta   90.00000000
_cell_angle_gamma   90.00000000
_symmetry_Int_Tables_number   1
_chemical_formula_structural   AsCl5
_chemical_formula_sum   'As2 Cl10'
_cell_volume   331.89741550
_cell_formula_units_Z   2
loop_
 _symmetry_equiv_pos_site_id
 _symmetry_equiv_pos_as_xyz
  1  'x, y, z'
loop_
 _atom_site_type_symbol
 _atom_site_label
 _atom_site_symmetry_multiplicity
 _atom_site_fract_x
 _atom_site_fract_y
 _atom_site_fract_z
 _atom_site_occupancy
  As  As0  1  0.83353842  0.00000000  0.50000000  1
  As  As1  1  0.16646158  0.50000000  0.00000000  1
  Cl  Cl2  1  0.83471075  0.00000000  0.20227231  1
  Cl  Cl3  1  0.83471075  0.00000000  0.79772769  1
  Cl  Cl4  1  0.35078424  0.23502697  0.00000000  1
  Cl  Cl5  1  0.35078424  0.76497303  0.00000000  1
  Cl  Cl6  1  0.64921576  0.73502697  0.50000000  1
  Cl  Cl7  1  0.64921576  0.26497303  0.50000000  1
  Cl  Cl8  1  0.81491604  0.50000000  0.00000000  1
  Cl  Cl9  1  0.18508396  0.00000000  0.50000000  1
  Cl  Cl10  1  0.16528925  0.50000000  0.70227231  1
  Cl  Cl11  1  0.16528925  0.50000000  0.29772769  1
