# generated using pymatgen
data_ScCl
_symmetry_space_group_name_H-M   'P 1'
_cell_length_a   9.05220719
_cell_length_b   9.05220711
_cell_length_c   9.05220685
_cell_angle_alpha   22.12459210
_cell_angle_beta   22.12459597
_cell_angle_gamma   22.12459342
_symmetry_Int_Tables_number   1
_chemical_formula_structural   ScCl
_chemical_formula_sum   'Sc2 Cl2'
_cell_volume   92.24997607
_cell_formula_units_Z   2
loop_
 _symmetry_equiv_pos_site_id
 _symmetry_equiv_pos_as_xyz
  1  'x, y, z'
loop_
 _atom_site_type_symbol
 _atom_site_label
 _atom_site_symmetry_multiplicity
 _atom_site_fract_x
 _atom_site_fract_y
 _atom_site_fract_z
 _atom_site_occupancy
  Sc  Sc0  1  0.78594682  0.78594682  0.78594682  1
  Sc  Sc1  1  0.21405318  0.21405318  0.21405318  1
  Cl  Cl2  1  0.60897644  0.60897644  0.60897644  1
  Cl  Cl3  1  0.39102356  0.39102356  0.39102356  1
