# generated using pymatgen
data_Fe3Se4
_symmetry_space_group_name_H-M   'P 1'
_cell_length_a   3.52719909
_cell_length_b   3.52699058
_cell_length_c   11.12430801
_cell_angle_alpha   89.99047065
_cell_angle_beta   89.99999992
_cell_angle_gamma   120.00194630
_symmetry_Int_Tables_number   1
_chemical_formula_structural   Fe3Se4
_chemical_formula_sum   'Fe3 Se4'
_cell_volume   119.84761202
_cell_formula_units_Z   1
loop_
 _symmetry_equiv_pos_site_id
 _symmetry_equiv_pos_as_xyz
  1  'x, y, z'
loop_
 _atom_site_type_symbol
 _atom_site_label
 _atom_site_symmetry_multiplicity
 _atom_site_fract_x
 _atom_site_fract_y
 _atom_site_fract_z
 _atom_site_occupancy
  Fe  Fe0  1  0.00006679  0.00013257  0.23720640  1
  Fe  Fe1  1  0.00000000  0.00000000  0.50000000  1
  Fe  Fe2  1  -0.00006679  -0.00013257  0.76279360  1
  Se  Se3  1  0.33337923  0.66675846  0.36613073  1
  Se  Se4  1  0.66662077  0.33324154  0.63386927  1
  Se  Se5  1  0.66672958  0.33346017  0.12489954  1
  Se  Se6  1  0.33327042  0.66653983  0.87510046  1
