# generated using pymatgen
data_MnPS3
_symmetry_space_group_name_H-M   'P 1'
_cell_length_a   6.06274079
_cell_length_b   6.06274160
_cell_length_c   6.76798614
_cell_angle_alpha   98.53384907
_cell_angle_beta   98.53385068
_cell_angle_gamma   119.99873010
_symmetry_Int_Tables_number   1
_chemical_formula_structural   MnPS3
_chemical_formula_sum   'Mn2 P2 S6'
_cell_volume   205.73691842
_cell_formula_units_Z   2
loop_
 _symmetry_equiv_pos_site_id
 _symmetry_equiv_pos_as_xyz
  1  'x, y, z'
loop_
 _atom_site_type_symbol
 _atom_site_label
 _atom_site_symmetry_multiplicity
 _atom_site_fract_x
 _atom_site_fract_y
 _atom_site_fract_z
 _atom_site_occupancy
  Mn  Mn0  1  0.33253445  0.66746555  0.00000000  1
  Mn  Mn1  1  0.66746555  0.33253445  -0.00000000  1
  P  P2  1  0.05712304  0.05712304  0.17170525  1
  P  P3  1  0.94287696  0.94287696  0.82829475  1
  S  S4  1  0.41017207  0.08289758  0.25129707  1
  S  S5  1  0.91710242  0.58982793  0.74870293  1
  S  S6  1  0.24524703  0.24524703  0.75100964  1
  S  S7  1  0.75475297  0.75475297  0.24899036  1
  S  S8  1  0.58982793  0.91710242  0.74870293  1
  S  S9  1  0.08289758  0.41017207  0.25129707  1
