# generated using pymatgen
data_CdCl2
_symmetry_space_group_name_H-M   'P 1'
_cell_length_a   6.23367634
_cell_length_b   6.23367624
_cell_length_c   6.23367545
_cell_angle_alpha   36.19570695
_cell_angle_beta   36.19570977
_cell_angle_gamma   36.19570825
_symmetry_Int_Tables_number   1
_chemical_formula_structural   CdCl2
_chemical_formula_sum   'Cd1 Cl2'
_cell_volume   75.58459679
_cell_formula_units_Z   1
loop_
 _symmetry_equiv_pos_site_id
 _symmetry_equiv_pos_as_xyz
  1  'x, y, z'
loop_
 _atom_site_type_symbol
 _atom_site_label
 _atom_site_symmetry_multiplicity
 _atom_site_fract_x
 _atom_site_fract_y
 _atom_site_fract_z
 _atom_site_occupancy
  Cd  Cd0  1  0.00000000  0.00000000  0.00000000  1
  Cl  Cl1  1  0.74968454  0.74968454  0.74968454  1
  Cl  Cl2  1  0.25031546  0.25031546  0.25031546  1
