# generated using pymatgen
data_Te2Br
_symmetry_space_group_name_H-M   'P 1'
_cell_length_a   4.07210878
_cell_length_b   13.24484301
_cell_length_c   15.02059375
_cell_angle_alpha   90.00000000
_cell_angle_beta   90.00000000
_cell_angle_gamma   90.00000000
_symmetry_Int_Tables_number   1
_chemical_formula_structural   Te2Br
_chemical_formula_sum   'Te16 Br8'
_cell_volume   810.12733468
_cell_formula_units_Z   8
loop_
 _symmetry_equiv_pos_site_id
 _symmetry_equiv_pos_as_xyz
  1  'x, y, z'
loop_
 _atom_site_type_symbol
 _atom_site_label
 _atom_site_symmetry_multiplicity
 _atom_site_fract_x
 _atom_site_fract_y
 _atom_site_fract_z
 _atom_site_occupancy
  Te  Te0  1  0.75000000  0.05771575  0.70770366  1
  Te  Te1  1  0.25000000  0.23608208  0.92590008  1
  Te  Te2  1  0.75000000  0.76391792  0.07409992  1
  Te  Te3  1  0.75000000  0.73608208  0.57409992  1
  Te  Te4  1  0.25000000  0.26391792  0.42590008  1
  Te  Te5  1  0.25000000  0.91717508  0.08714631  1
  Te  Te6  1  0.25000000  0.58282492  0.58714631  1
  Te  Te7  1  0.75000000  0.41717508  0.41285369  1
  Te  Te8  1  0.75000000  0.08282492  0.91285369  1
  Te  Te9  1  0.75000000  0.70619640  0.81929505  1
  Te  Te10  1  0.75000000  0.79380360  0.31929505  1
  Te  Te11  1  0.25000000  0.20619640  0.68070495  1
  Te  Te12  1  0.75000000  0.44228425  0.20770366  1
  Te  Te13  1  0.25000000  0.55771575  0.79229634  1
  Te  Te14  1  0.25000000  0.94228425  0.29229634  1
  Te  Te15  1  0.25000000  0.29380360  0.18070495  1
  Br  Br16  1  0.25000000  0.60174011  0.05623814  1
  Br  Br17  1  0.75000000  0.12273220  0.16470261  1
  Br  Br18  1  0.25000000  0.87726780  0.83529739  1
  Br  Br19  1  0.25000000  0.62273220  0.33529739  1
  Br  Br20  1  0.75000000  0.37726780  0.66470261  1
  Br  Br21  1  0.75000000  0.10174011  0.44376186  1
  Br  Br22  1  0.25000000  0.89825989  0.55623814  1
  Br  Br23  1  0.75000000  0.39825989  0.94376186  1
