# generated using pymatgen
data_Bi2SeO5
_symmetry_space_group_name_H-M   'P 1'
_cell_length_a   5.54491754
_cell_length_b   8.67507674
_cell_length_c   11.37056662
_cell_angle_alpha   90.00000000
_cell_angle_beta   90.00000000
_cell_angle_gamma   108.63806192
_symmetry_Int_Tables_number   1
_chemical_formula_structural   Bi2SeO5
_chemical_formula_sum   'Bi8 Se4 O20'
_cell_volume   518.26938436
_cell_formula_units_Z   4
loop_
 _symmetry_equiv_pos_site_id
 _symmetry_equiv_pos_as_xyz
  1  'x, y, z'
loop_
 _atom_site_type_symbol
 _atom_site_label
 _atom_site_symmetry_multiplicity
 _atom_site_fract_x
 _atom_site_fract_y
 _atom_site_fract_z
 _atom_site_occupancy
  Bi  Bi0  1  0.40325339  0.82998400  0.61296981  1
  Bi  Bi1  1  0.90325339  0.82998400  0.38703019  1
  Bi  Bi2  1  0.07326939  0.17001600  0.61296981  1
  Bi  Bi3  1  0.24710356  0.50000000  0.87658014  1
  Bi  Bi4  1  0.74710356  0.50000000  0.12341986  1
  Bi  Bi5  1  0.76312635  0.50000000  0.61568470  1
  Bi  Bi6  1  0.26312635  0.50000000  0.38431530  1
  Bi  Bi7  1  0.57326939  0.17001600  0.38703019  1
  Se  Se8  1  0.89405808  0.82791490  0.86353188  1
  Se  Se9  1  0.06614318  0.17208510  0.13646812  1
  Se  Se10  1  0.39405808  0.82791490  0.13646812  1
  Se  Se11  1  0.56614318  0.17208510  0.86353188  1
  O  O12  1  0.34467130  0.29718652  0.07310573  1
  O  O13  1  0.04748479  0.70281348  0.92689427  1
  O  O14  1  0.76408104  -0.00000000  0.50000000  1
  O  O15  1  0.26408104  -0.00000000  0.50000000  1
  O  O16  1  0.44072531  0.31143767  0.79534043  1
  O  O17  1  0.16974721  0.09945358  0.26052508  1
  O  O18  1  0.07029364  0.90054642  0.73947492  1
  O  O19  1  0.54748479  0.70281348  0.07310573  1
  O  O20  1  0.84467130  0.29718652  0.92689427  1
  O  O21  1  0.13880969  0.50000000  0.70055525  1
  O  O22  1  0.63880969  0.50000000  0.29944475  1
  O  O23  1  0.06201080  0.67355519  0.50633451  1
  O  O24  1  0.38845662  0.32644481  0.49366549  1
  O  O25  1  0.56201080  0.67355519  0.49366549  1
  O  O26  1  0.88845662  0.32644481  0.50633451  1
  O  O27  1  0.62928764  0.68856233  0.79534043  1
  O  O28  1  0.94072531  0.31143767  0.20465957  1
  O  O29  1  0.12928764  0.68856233  0.20465957  1
  O  O30  1  0.57029364  0.90054642  0.26052508  1
  O  O31  1  0.66974721  0.09945358  0.73947492  1
