# generated using pymatgen
data_TlInS2
_symmetry_space_group_name_H-M   'P 1'
_cell_length_a   4.03296721
_cell_length_b   5.01886119
_cell_length_c   6.02765935
_cell_angle_alpha   99.43851035
_cell_angle_beta   100.94230141
_cell_angle_gamma   105.11774933
_symmetry_Int_Tables_number   1
_chemical_formula_structural   TlInS2
_chemical_formula_sum   'Tl1 In1 S2'
_cell_volume   112.66976473
_cell_formula_units_Z   1
loop_
 _symmetry_equiv_pos_site_id
 _symmetry_equiv_pos_as_xyz
  1  'x, y, z'
loop_
 _atom_site_type_symbol
 _atom_site_label
 _atom_site_symmetry_multiplicity
 _atom_site_fract_x
 _atom_site_fract_y
 _atom_site_fract_z
 _atom_site_occupancy
  Tl  Tl0  1  0.99017709  0.74954851  0.82020148  1
  In  In1  1  0.77881783  0.26821864  0.20919544  1
  S  S2  1  0.34590672  0.19751341  0.53188914  1
  S  S3  1  0.38509936  0.78471944  0.43871394  1
