# generated using pymatgen
data_ErClO
_symmetry_space_group_name_H-M   'P 1'
_cell_length_a   4.13380175
_cell_length_b   8.26137059
_cell_length_c   3.72789534
_cell_angle_alpha   90.00000000
_cell_angle_beta   90.00000000
_cell_angle_gamma   90.00000000
_symmetry_Int_Tables_number   1
_chemical_formula_structural   ErClO
_chemical_formula_sum   'Er2 Cl2 O2'
_cell_volume   127.31086217
_cell_formula_units_Z   2
loop_
 _symmetry_equiv_pos_site_id
 _symmetry_equiv_pos_as_xyz
  1  'x, y, z'
loop_
 _atom_site_type_symbol
 _atom_site_label
 _atom_site_symmetry_multiplicity
 _atom_site_fract_x
 _atom_site_fract_y
 _atom_site_fract_z
 _atom_site_occupancy
  Er  Er0  1  0.00000000  0.12648825  0.50000000  1
  Er  Er1  1  0.50000000  0.87351175  0.00000000  1
  Cl  Cl2  1  0.00000000  0.35408388  0.00000000  1
  Cl  Cl3  1  0.50000000  0.64591612  0.50000000  1
  O  O4  1  0.00000000  0.96755285  0.00000000  1
  O  O5  1  0.50000000  0.03244715  0.50000000  1
