# generated using pymatgen
data_PtI2
_symmetry_space_group_name_H-M   'P 1'
_cell_length_a   6.71126056
_cell_length_b   8.70187759
_cell_length_c   6.94365183
_cell_angle_alpha   90.00000000
_cell_angle_beta   102.99344755
_cell_angle_gamma   90.00000000
_symmetry_Int_Tables_number   1
_chemical_formula_structural   PtI2
_chemical_formula_sum   'Pt4 I8'
_cell_volume   395.13036225
_cell_formula_units_Z   4
loop_
 _symmetry_equiv_pos_site_id
 _symmetry_equiv_pos_as_xyz
  1  'x, y, z'
loop_
 _atom_site_type_symbol
 _atom_site_label
 _atom_site_symmetry_multiplicity
 _atom_site_fract_x
 _atom_site_fract_y
 _atom_site_fract_z
 _atom_site_occupancy
  Pt  Pt0  1  0.23902415  0.62695709  0.49682865  1
  Pt  Pt1  1  0.76097585  0.12695709  0.00317135  1
  Pt  Pt2  1  0.76097585  0.37304291  0.50317135  1
  Pt  Pt3  1  0.23902415  0.87304291  -0.00317135  1
  I  I4  1  0.46386148  0.83320949  0.73340488  1
  I  I5  1  0.53613852  0.33320949  0.76659512  1
  I  I6  1  0.53613852  0.16679051  0.26659512  1
  I  I7  1  0.46386148  0.66679051  0.23340488  1
  I  I8  1  0.98419392  0.91448082  0.22937708  1
  I  I9  1  0.01580608  0.41448082  0.27062292  1
  I  I10  1  0.01580608  0.08551918  0.77062292  1
  I  I11  1  0.98419392  0.58551918  0.72937708  1
