# generated using pymatgen
data_K2Se5
_symmetry_space_group_name_H-M   'P 1'
_cell_length_a   6.61565576
_cell_length_b   6.99480823
_cell_length_c   17.70510429
_cell_angle_alpha   90.00000000
_cell_angle_beta   90.00000000
_cell_angle_gamma   90.00000000
_symmetry_Int_Tables_number   1
_chemical_formula_structural   K2Se5
_chemical_formula_sum   'K8 Se20'
_cell_volume   819.30801001
_cell_formula_units_Z   4
loop_
 _symmetry_equiv_pos_site_id
 _symmetry_equiv_pos_as_xyz
  1  'x, y, z'
loop_
 _atom_site_type_symbol
 _atom_site_label
 _atom_site_symmetry_multiplicity
 _atom_site_fract_x
 _atom_site_fract_y
 _atom_site_fract_z
 _atom_site_occupancy
  K  K0  1  0.88220524  0.58563502  0.00698595  1
  K  K1  1  0.38220524  0.91436498  0.99301405  1
  K  K2  1  0.11779476  0.08563502  0.49301405  1
  K  K3  1  0.61779476  0.41436498  0.50698595  1
  K  K4  1  0.09107699  0.25919524  0.83933114  1
  K  K5  1  0.59107699  0.24080476  0.16066886  1
  K  K6  1  0.90892301  0.75919524  0.66066886  1
  K  K7  1  0.40892301  0.74080476  0.33933114  1
  Se  Se8  1  0.58768166  0.74283569  0.16554663  1
  Se  Se9  1  0.07974692  0.14598680  0.12493791  1
  Se  Se10  1  0.57974692  0.35401320  0.87506209  1
  Se  Se11  1  0.39664913  0.42402776  0.98727325  1
  Se  Se12  1  0.42025308  0.85401320  0.62493791  1
  Se  Se13  1  0.89664913  0.07597224  0.01272675  1
  Se  Se14  1  0.08768166  0.75716431  0.83445337  1
  Se  Se15  1  0.92025308  0.64598680  0.37506209  1
  Se  Se16  1  0.41231834  0.24283569  0.33445337  1
  Se  Se17  1  0.75683280  0.13148626  0.34873850  1
  Se  Se18  1  0.24316720  0.63148626  0.15126150  1
  Se  Se19  1  0.74316720  0.86851374  0.84873850  1
  Se  Se20  1  0.10335087  0.57597224  0.48727325  1
  Se  Se21  1  0.25683280  0.36851374  0.65126150  1
  Se  Se22  1  0.02782605  0.87401100  0.20773564  1
  Se  Se23  1  0.52782605  0.62598900  0.79226436  1
  Se  Se24  1  0.97217395  0.37401100  0.29226436  1
  Se  Se25  1  0.47217395  0.12598900  0.70773564  1
  Se  Se26  1  0.91231834  0.25716431  0.66554663  1
  Se  Se27  1  0.60335087  0.92402776  0.51272675  1
