# generated using pymatgen
data_TiBr3
_symmetry_space_group_name_H-M   'P 1'
_cell_length_a   7.20286112
_cell_length_b   7.20286094
_cell_length_c   7.20286087
_cell_angle_alpha   52.10814281
_cell_angle_beta   52.10814422
_cell_angle_gamma   52.10814838
_symmetry_Int_Tables_number   1
_chemical_formula_structural   TiBr3
_chemical_formula_sum   'Ti2 Br6'
_cell_volume   215.22811873
_cell_formula_units_Z   2
loop_
 _symmetry_equiv_pos_site_id
 _symmetry_equiv_pos_as_xyz
  1  'x, y, z'
loop_
 _atom_site_type_symbol
 _atom_site_label
 _atom_site_symmetry_multiplicity
 _atom_site_fract_x
 _atom_site_fract_y
 _atom_site_fract_z
 _atom_site_occupancy
  Ti  Ti0  1  0.33336783  0.33336783  0.33336783  1
  Ti  Ti1  1  0.66663217  0.66663217  0.66663217  1
  Br  Br2  1  0.74077710  0.42147086  0.08064723  1
  Br  Br3  1  0.91935277  0.25922290  0.57852914  1
  Br  Br4  1  0.25922290  0.57852914  0.91935277  1
  Br  Br5  1  0.42147086  0.08064723  0.74077710  1
  Br  Br6  1  0.57852914  0.91935277  0.25922290  1
  Br  Br7  1  0.08064723  0.74077710  0.42147086  1
