# generated using pymatgen
data_ScPS4
_symmetry_space_group_name_H-M   'P 1'
_cell_length_a   6.23818570
_cell_length_b   6.47391584
_cell_length_c   6.65349469
_cell_angle_alpha   85.45766349
_cell_angle_beta   88.72216883
_cell_angle_gamma   81.28827911
_symmetry_Int_Tables_number   1
_chemical_formula_structural   ScPS4
_chemical_formula_sum   'Sc2 P2 S8'
_cell_volume   264.75585048
_cell_formula_units_Z   2
loop_
 _symmetry_equiv_pos_site_id
 _symmetry_equiv_pos_as_xyz
  1  'x, y, z'
loop_
 _atom_site_type_symbol
 _atom_site_label
 _atom_site_symmetry_multiplicity
 _atom_site_fract_x
 _atom_site_fract_y
 _atom_site_fract_z
 _atom_site_occupancy
  Sc  Sc0  1  0.79489987  0.30344697  0.93468251  1
  Sc  Sc1  1  0.20510013  0.69655303  0.06531749  1
  P  P2  1  0.69053904  0.73479170  0.19283699  1
  P  P3  1  0.30946096  0.26520830  0.80716301  1
  S  S4  1  0.57795248  0.23786038  0.63033490  1
  S  S5  1  0.42204752  0.76213962  0.36966510  1
  S  S6  1  0.88458667  0.96326476  0.21890456  1
  S  S7  1  0.11541333  0.03673524  0.78109544  1
  S  S8  1  0.59605677  0.71803611  0.89870277  1
  S  S9  1  0.40394323  0.28196389  0.10129723  1
  S  S10  1  0.91848820  0.46999492  0.25645036  1
  S  S11  1  0.08151180  0.53000508  0.74354964  1
