# generated using pymatgen
data_ZnSiO3
_symmetry_space_group_name_H-M   'P 1'
_cell_length_a   4.80455049
_cell_length_b   4.80455076
_cell_length_c   5.40483224
_cell_angle_alpha   63.61068865
_cell_angle_beta   63.61069590
_cell_angle_gamma   59.99999820
_symmetry_Int_Tables_number   1
_chemical_formula_structural   ZnSiO3
_chemical_formula_sum   'Zn2 Si2 O6'
_cell_volume   92.73283422
_cell_formula_units_Z   2
loop_
 _symmetry_equiv_pos_site_id
 _symmetry_equiv_pos_as_xyz
  1  'x, y, z'
loop_
 _atom_site_type_symbol
 _atom_site_label
 _atom_site_symmetry_multiplicity
 _atom_site_fract_x
 _atom_site_fract_y
 _atom_site_fract_z
 _atom_site_occupancy
  Zn  Zn0  1  0.63081633  0.63081633  0.10755000  1
  Zn  Zn1  1  0.36918367  0.36918367  0.89245000  1
  Si  Si2  1  0.83990584  0.83990584  0.48028249  1
  Si  Si3  1  0.16009416  0.16009416  0.51971751  1
  O  O4  1  0.56257116  0.95365668  0.28480499  1
  O  O5  1  0.19896717  0.56257116  0.28480499  1
  O  O6  1  0.95365668  0.19896717  0.28480499  1
  O  O7  1  0.43742884  0.04634332  0.71519501  1
  O  O8  1  0.80103283  0.43742884  0.71519501  1
  O  O9  1  0.04634332  0.80103283  0.71519501  1
