# generated using pymatgen
data_ZrTiTe4
_symmetry_space_group_name_H-M   'P 1'
_cell_length_a   3.88936635
_cell_length_b   6.66004213
_cell_length_c   6.74874233
_cell_angle_alpha   90.00168670
_cell_angle_beta   90.00000000
_cell_angle_gamma   90.00000000
_symmetry_Int_Tables_number   1
_chemical_formula_structural   ZrTiTe4
_chemical_formula_sum   'Zr1 Ti1 Te4'
_cell_volume   174.81499225
_cell_formula_units_Z   1
loop_
 _symmetry_equiv_pos_site_id
 _symmetry_equiv_pos_as_xyz
  1  'x, y, z'
loop_
 _atom_site_type_symbol
 _atom_site_label
 _atom_site_symmetry_multiplicity
 _atom_site_fract_x
 _atom_site_fract_y
 _atom_site_fract_z
 _atom_site_occupancy
  Zr  Zr0  1  0.50000000  -0.00000000  0.50000000  1
  Ti  Ti1  1  0.00000000  0.00000000  0.00000000  1
  Te  Te2  1  0.50000000  0.74165830  0.84354935  1
  Te  Te3  1  0.50000000  0.25834170  0.15645065  1
  Te  Te4  1  0.00000000  0.73194455  0.32329736  1
  Te  Te5  1  0.00000000  0.26805545  0.67670264  1
