# generated using pymatgen
data_Fe(CO3)2
_symmetry_space_group_name_H-M   'P 1'
_cell_length_a   4.56889969
_cell_length_b   5.65490115
_cell_length_c   4.56889969
_cell_angle_alpha   66.17296131
_cell_angle_beta   120.00000301
_cell_angle_gamma   113.82703869
_symmetry_Int_Tables_number   1
_chemical_formula_structural   Fe(CO3)2
_chemical_formula_sum   'Fe1 C2 O6'
_cell_volume   90.42619378
_cell_formula_units_Z   1
loop_
 _symmetry_equiv_pos_site_id
 _symmetry_equiv_pos_as_xyz
  1  'x, y, z'
loop_
 _atom_site_type_symbol
 _atom_site_label
 _atom_site_symmetry_multiplicity
 _atom_site_fract_x
 _atom_site_fract_y
 _atom_site_fract_z
 _atom_site_occupancy
  Fe  Fe0  1  0.50000000  0.50000000  0.50000000  1
  C  C1  1  0.23741416  0.71224349  0.76258584  1
  C  C2  1  0.76258584  0.28775651  0.23741416  1
  O  O3  1  0.05876138  0.28383946  0.27118061  1
  O  O4  1  0.50374131  0.71616054  0.05876138  1
  O  O5  1  0.27118061  0.71616054  0.49625869  1
  O  O6  1  0.72881939  0.28383946  0.50374131  1
  O  O7  1  0.49625869  0.28383946  0.94123862  1
  O  O8  1  0.94123862  0.71616054  0.72881939  1
