# generated using pymatgen
data_HoBrO
_symmetry_space_group_name_H-M   'P 1'
_cell_length_a   10.09696892
_cell_length_b   10.09696892
_cell_length_c   10.09696876
_cell_angle_alpha   21.75830153
_cell_angle_beta   21.75830153
_cell_angle_gamma   21.75830386
_symmetry_Int_Tables_number   1
_chemical_formula_structural   HoBrO
_chemical_formula_sum   'Ho2 Br2 O2'
_cell_volume   123.96990806
_cell_formula_units_Z   2
loop_
 _symmetry_equiv_pos_site_id
 _symmetry_equiv_pos_as_xyz
  1  'x, y, z'
loop_
 _atom_site_type_symbol
 _atom_site_label
 _atom_site_symmetry_multiplicity
 _atom_site_fract_x
 _atom_site_fract_y
 _atom_site_fract_z
 _atom_site_occupancy
  Ho  Ho0  1  0.11868924  0.11868924  0.11868924  1
  Ho  Ho1  1  0.88131076  0.88131076  0.88131076  1
  Br  Br2  1  0.38722667  0.38722667  0.38722667  1
  Br  Br3  1  0.61277333  0.61277333  0.61277333  1
  O  O4  1  0.80457471  0.80457471  0.80457471  1
  O  O5  1  0.19542529  0.19542529  0.19542529  1
