# generated using pymatgen
data_MgPSe3
_symmetry_space_group_name_H-M   'P 1'
_cell_length_a   7.69576454
_cell_length_b   7.69576511
_cell_length_c   7.69576532
_cell_angle_alpha   49.44575210
_cell_angle_beta   49.44575109
_cell_angle_gamma   49.44575349
_symmetry_Int_Tables_number   1
_chemical_formula_structural   MgPSe3
_chemical_formula_sum   'Mg2 P2 Se6'
_cell_volume   241.83038440
_cell_formula_units_Z   2
loop_
 _symmetry_equiv_pos_site_id
 _symmetry_equiv_pos_as_xyz
  1  'x, y, z'
loop_
 _atom_site_type_symbol
 _atom_site_label
 _atom_site_symmetry_multiplicity
 _atom_site_fract_x
 _atom_site_fract_y
 _atom_site_fract_z
 _atom_site_occupancy
  Mg  Mg0  1  0.16799500  0.16799500  0.16799500  1
  Mg  Mg1  1  0.83200500  0.83200500  0.83200500  1
  P  P2  1  0.44444759  0.44444759  0.44444759  1
  P  P3  1  0.55555241  0.55555241  0.55555241  1
  Se  Se4  1  0.41028518  0.74884249  0.08444980  1
  Se  Se5  1  0.08444980  0.41028518  0.74884249  1
  Se  Se6  1  0.74884249  0.08444980  0.41028518  1
  Se  Se7  1  0.58971482  0.25115751  0.91555020  1
  Se  Se8  1  0.91555020  0.58971482  0.25115751  1
  Se  Se9  1  0.25115751  0.91555020  0.58971482  1
