# generated using pymatgen
data_Na2Pd3O4
_symmetry_space_group_name_H-M   'P 1'
_cell_length_a   3.08400640
_cell_length_b   5.50392848
_cell_length_c   7.31382883
_cell_angle_alpha   112.10273932
_cell_angle_beta   102.17121972
_cell_angle_gamma   90.00000202
_symmetry_Int_Tables_number   1
_chemical_formula_structural   Na2Pd3O4
_chemical_formula_sum   'Na2 Pd3 O4'
_cell_volume   112.00497923
_cell_formula_units_Z   1
loop_
 _symmetry_equiv_pos_site_id
 _symmetry_equiv_pos_as_xyz
  1  'x, y, z'
loop_
 _atom_site_type_symbol
 _atom_site_label
 _atom_site_symmetry_multiplicity
 _atom_site_fract_x
 _atom_site_fract_y
 _atom_site_fract_z
 _atom_site_occupancy
  Na  Na0  1  0.79765883  0.29765883  0.59531866  1
  Na  Na1  1  0.20234117  0.70234117  0.40468134  1
  Pd  Pd2  1  0.10675116  0.10675116  0.21350332  1
  Pd  Pd3  1  0.89324884  0.89324884  0.78649668  1
  Pd  Pd4  1  0.50000000  0.50000000  -0.00000000  1
  O  O5  1  0.61608076  0.86999276  0.23216051  1
  O  O6  1  0.38391924  0.13000724  0.76783949  1
  O  O7  1  0.38391924  0.63783225  0.76783949  1
  O  O8  1  0.61608076  0.36216775  0.23216051  1
