# generated using pymatgen
data_Ca2Cu(BrO)2
_symmetry_space_group_name_H-M   'P 1'
_cell_length_a   3.87357460
_cell_length_b   3.87357435
_cell_length_c   9.05883158
_cell_angle_alpha   102.34518600
_cell_angle_beta   102.34518582
_cell_angle_gamma   90.00000886
_symmetry_Int_Tables_number   1
_chemical_formula_structural   Ca2Cu(BrO)2
_chemical_formula_sum   'Ca2 Cu1 Br2 O2'
_cell_volume   129.56186866
_cell_formula_units_Z   1
loop_
 _symmetry_equiv_pos_site_id
 _symmetry_equiv_pos_as_xyz
  1  'x, y, z'
loop_
 _atom_site_type_symbol
 _atom_site_label
 _atom_site_symmetry_multiplicity
 _atom_site_fract_x
 _atom_site_fract_y
 _atom_site_fract_z
 _atom_site_occupancy
  Ca  Ca0  1  0.40946731  0.40946731  0.81893562  1
  Ca  Ca1  1  0.59053154  0.59053154  0.18106307  1
  Cu  Cu2  1  0.00000091  0.00000091  0.00000282  1
  Br  Br3  1  0.82770688  0.82770688  0.65541376  1
  Br  Br4  1  0.17229335  0.17229335  0.34458570  1
  O  O5  1  0.49999951  -0.00000049  0.00000002  1
  O  O6  1  -0.00000049  0.49999951  0.00000002  1
