# generated using pymatgen
data_SmS
_symmetry_space_group_name_H-M   'P 1'
_cell_length_a   3.92952768
_cell_length_b   3.92952753
_cell_length_c   7.35989829
_cell_angle_alpha   105.48282631
_cell_angle_beta   105.48282621
_cell_angle_gamma   90.00125595
_symmetry_Int_Tables_number   1
_chemical_formula_structural   SmS
_chemical_formula_sum   'Sm2 S2'
_cell_volume   105.23559748
_cell_formula_units_Z   2
loop_
 _symmetry_equiv_pos_site_id
 _symmetry_equiv_pos_as_xyz
  1  'x, y, z'
loop_
 _atom_site_type_symbol
 _atom_site_label
 _atom_site_symmetry_multiplicity
 _atom_site_fract_x
 _atom_site_fract_y
 _atom_site_fract_z
 _atom_site_occupancy
  Sm  Sm0  1  0.34467913  0.34167767  0.68635680  1
  Sm  Sm1  1  0.65832233  0.65532087  0.31364320  1
  S  S2  1  0.13825291  0.13525437  0.27350729  1
  S  S3  1  0.86474563  0.86174709  0.72649271  1
