# generated using pymatgen
data_ScHCl
_symmetry_space_group_name_H-M   'P 1'
_cell_length_a   9.01382904
_cell_length_b   9.01382897
_cell_length_c   9.01382959
_cell_angle_alpha   22.32525469
_cell_angle_beta   22.32525598
_cell_angle_gamma   22.32525789
_symmetry_Int_Tables_number   1
_chemical_formula_structural   ScHCl
_chemical_formula_sum   'Sc2 H2 Cl2'
_cell_volume   92.67716631
_cell_formula_units_Z   2
loop_
 _symmetry_equiv_pos_site_id
 _symmetry_equiv_pos_as_xyz
  1  'x, y, z'
loop_
 _atom_site_type_symbol
 _atom_site_label
 _atom_site_symmetry_multiplicity
 _atom_site_fract_x
 _atom_site_fract_y
 _atom_site_fract_z
 _atom_site_occupancy
  Sc  Sc0  1  0.88139085  0.88139085  0.88139085  1
  Sc  Sc1  1  0.11860915  0.11860915  0.11860915  1
  H  H2  1  0.80525587  0.80525587  0.80525587  1
  H  H3  1  0.19474413  0.19474413  0.19474413  1
  Cl  Cl4  1  0.39083615  0.39083615  0.39083615  1
  Cl  Cl5  1  0.60916385  0.60916385  0.60916385  1
