# generated using pymatgen
data_Te4O9
_symmetry_space_group_name_H-M   'P 1'
_cell_length_a   7.27495304
_cell_length_b   7.27495305
_cell_length_c   7.27495249
_cell_angle_alpha   80.87702017
_cell_angle_beta   80.87701647
_cell_angle_gamma   80.87702144
_symmetry_Int_Tables_number   1
_chemical_formula_structural   Te4O9
_chemical_formula_sum   'Te8 O18'
_cell_volume   371.81548851
_cell_formula_units_Z   2
loop_
 _symmetry_equiv_pos_site_id
 _symmetry_equiv_pos_as_xyz
  1  'x, y, z'
loop_
 _atom_site_type_symbol
 _atom_site_label
 _atom_site_symmetry_multiplicity
 _atom_site_fract_x
 _atom_site_fract_y
 _atom_site_fract_z
 _atom_site_occupancy
  Te  Te0  1  0.81783677  0.81783677  0.81783677  1
  Te  Te1  1  0.18216323  0.18216323  0.18216323  1
  Te  Te2  1  0.15608050  0.70160952  0.39615461  1
  Te  Te3  1  0.39615461  0.15608050  0.70160952  1
  Te  Te4  1  0.70160952  0.39615461  0.15608050  1
  Te  Te5  1  0.84391950  0.29839048  0.60384539  1
  Te  Te6  1  0.60384539  0.84391950  0.29839048  1
  Te  Te7  1  0.29839048  0.60384539  0.84391950  1
  O  O8  1  0.28990667  0.77644073  0.57530729  1
  O  O9  1  0.22355927  0.42469271  0.71009333  1
  O  O10  1  0.42469271  0.71009333  0.22355927  1
  O  O11  1  0.71009333  0.22355927  0.42469271  1
  O  O12  1  0.91273850  0.71746623  0.58458041  1
  O  O13  1  0.71746623  0.58458041  0.91273850  1
  O  O14  1  0.58458041  0.91273850  0.71746623  1
  O  O15  1  0.08726150  0.28253377  0.41541959  1
  O  O16  1  0.27999182  0.06434353  0.95223482  1
  O  O17  1  0.41541959  0.08726150  0.28253377  1
  O  O18  1  0.95223482  0.27999182  0.06434353  1
  O  O19  1  0.57530729  0.28990667  0.77644073  1
  O  O20  1  0.06434353  0.95223482  0.27999182  1
  O  O21  1  0.04776518  0.72000818  0.93565647  1
  O  O22  1  0.72000818  0.93565647  0.04776518  1
  O  O23  1  0.93565647  0.04776518  0.72000818  1
  O  O24  1  0.28253377  0.41541959  0.08726150  1
  O  O25  1  0.77644073  0.57530729  0.28990667  1
