# generated using pymatgen
data_UTe3
_symmetry_space_group_name_H-M   'P 1'
_cell_length_a   4.17175891
_cell_length_b   6.08542689
_cell_length_c   11.22007240
_cell_angle_alpha   114.33501696
_cell_angle_beta   90.00000000
_cell_angle_gamma   90.00000000
_symmetry_Int_Tables_number   1
_chemical_formula_structural   UTe3
_chemical_formula_sum   'U2 Te6'
_cell_volume   259.53537142
_cell_formula_units_Z   2
loop_
 _symmetry_equiv_pos_site_id
 _symmetry_equiv_pos_as_xyz
  1  'x, y, z'
loop_
 _atom_site_type_symbol
 _atom_site_label
 _atom_site_symmetry_multiplicity
 _atom_site_fract_x
 _atom_site_fract_y
 _atom_site_fract_z
 _atom_site_occupancy
  U  U0  1  0.25000000  0.37395923  0.16328887  1
  U  U1  1  0.75000000  0.62604077  0.83671113  1
  Te  Te2  1  0.75000000  0.74905768  0.33784525  1
  Te  Te3  1  0.75000000  0.20383920  0.93874796  1
  Te  Te4  1  0.75000000  0.25829463  0.33392932  1
  Te  Te5  1  0.25000000  0.25094232  0.66215475  1
  Te  Te6  1  0.25000000  0.79616080  0.06125204  1
  Te  Te7  1  0.25000000  0.74170537  0.66607068  1
