# generated using pymatgen
data_ZnC2S2(OF)6
_symmetry_space_group_name_H-M   'P 1'
_cell_length_a   10.74459748
_cell_length_b   10.74459797
_cell_length_c   10.74459814
_cell_angle_alpha   26.45743256
_cell_angle_beta   26.45743018
_cell_angle_gamma   26.45742909
_symmetry_Int_Tables_number   1
_chemical_formula_structural   ZnC2S2(OF)6
_chemical_formula_sum   'Zn1 C2 S2 O6 F6'
_cell_volume   217.02170605
_cell_formula_units_Z   1
loop_
 _symmetry_equiv_pos_site_id
 _symmetry_equiv_pos_as_xyz
  1  'x, y, z'
loop_
 _atom_site_type_symbol
 _atom_site_label
 _atom_site_symmetry_multiplicity
 _atom_site_fract_x
 _atom_site_fract_y
 _atom_site_fract_z
 _atom_site_occupancy
  Zn  Zn0  1  0.00000000  0.00000000  0.00000000  1
  C  C1  1  0.77831505  0.77831505  0.77831505  1
  C  C2  1  0.22168495  0.22168495  0.22168495  1
  S  S3  1  0.28154706  0.28154706  0.28154706  1
  S  S4  1  0.71845294  0.71845294  0.71845294  1
  O  O5  1  0.26637232  0.01920434  0.59304321  1
  O  O6  1  0.59304321  0.26637232  0.01920434  1
  O  O7  1  0.40695679  0.73362768  0.98079566  1
  O  O8  1  0.73362768  0.98079566  0.40695679  1
  O  O9  1  0.98079566  0.40695679  0.73362768  1
  O  O10  1  0.01920434  0.59304321  0.26637232  1
  F  F11  1  0.05997892  0.77374827  0.54435518  1
  F  F12  1  0.54435518  0.05997892  0.77374827  1
  F  F13  1  0.77374827  0.54435518  0.05997892  1
  F  F14  1  0.22625173  0.45564482  0.94002108  1
  F  F15  1  0.45564482  0.94002108  0.22625173  1
  F  F16  1  0.94002108  0.22625173  0.45564482  1
