# generated using pymatgen
data_CdBiClO2
_symmetry_space_group_name_H-M   'P 1'
_cell_length_a   4.22046612
_cell_length_b   6.13819833
_cell_length_c   7.62613274
_cell_angle_alpha   100.33299097
_cell_angle_beta   90.00000000
_cell_angle_gamma   90.00000000
_symmetry_Int_Tables_number   1
_chemical_formula_structural   CdBiClO2
_chemical_formula_sum   'Cd2 Bi2 Cl2 O4'
_cell_volume   194.35894450
_cell_formula_units_Z   2
loop_
 _symmetry_equiv_pos_site_id
 _symmetry_equiv_pos_as_xyz
  1  'x, y, z'
loop_
 _atom_site_type_symbol
 _atom_site_label
 _atom_site_symmetry_multiplicity
 _atom_site_fract_x
 _atom_site_fract_y
 _atom_site_fract_z
 _atom_site_occupancy
  Cd  Cd0  1  0.75000000  0.65655290  0.90184722  1
  Cd  Cd1  1  0.25000000  0.34344712  0.09815311  1
  Bi  Bi2  1  0.25000000  0.30621443  0.59576697  1
  Bi  Bi3  1  0.75000000  0.69378486  0.40423260  1
  Cl  Cl4  1  0.25000000  0.96559604  0.19370075  1
  Cl  Cl5  1  0.75000000  0.03440389  0.80629945  1
  O  O6  1  0.25000000  0.51271340  0.85540755  1
  O  O7  1  0.75000000  0.48728711  0.14459309  1
  O  O8  1  0.75000000  0.45152069  0.59144494  1
  O  O9  1  0.25000000  0.54847956  0.40855533  1
