# generated using pymatgen
data_PbI2
_symmetry_space_group_name_H-M   'P 1'
_cell_length_a   21.31426293
_cell_length_b   21.31426302
_cell_length_c   21.31426277
_cell_angle_alpha   12.35144993
_cell_angle_beta   12.35144820
_cell_angle_gamma   12.35144905
_symmetry_Int_Tables_number   1
_chemical_formula_structural   PbI2
_chemical_formula_sum   'Pb3 I6'
_cell_volume   385.18800507
_cell_formula_units_Z   3
loop_
 _symmetry_equiv_pos_site_id
 _symmetry_equiv_pos_as_xyz
  1  'x, y, z'
loop_
 _atom_site_type_symbol
 _atom_site_label
 _atom_site_symmetry_multiplicity
 _atom_site_fract_x
 _atom_site_fract_y
 _atom_site_fract_z
 _atom_site_occupancy
  Pb  Pb0  1  0.00000000  0.00000000  0.00000000  1
  Pb  Pb1  1  0.55546334  0.55546334  0.55546334  1
  Pb  Pb2  1  0.44453666  0.44453666  0.44453666  1
  I  I3  1  0.08133389  0.08133389  0.08133389  1
  I  I4  1  0.30345163  0.30345163  0.30345163  1
  I  I5  1  0.80775768  0.80775768  0.80775768  1
  I  I6  1  0.19224232  0.19224232  0.19224232  1
  I  I7  1  0.91866611  0.91866611  0.91866611  1
  I  I8  1  0.69654837  0.69654837  0.69654837  1
