# generated using pymatgen
data_S3(NCl)2
_symmetry_space_group_name_H-M   'P 1'
_cell_length_a   5.43695135
_cell_length_b   8.64790218
_cell_length_c   6.51590526
_cell_angle_alpha   90.00000000
_cell_angle_beta   104.94284955
_cell_angle_gamma   90.00000000
_symmetry_Int_Tables_number   1
_chemical_formula_structural   S3(NCl)2
_chemical_formula_sum   'S6 N4 Cl4'
_cell_volume   296.00605671
_cell_formula_units_Z   2
loop_
 _symmetry_equiv_pos_site_id
 _symmetry_equiv_pos_as_xyz
  1  'x, y, z'
loop_
 _atom_site_type_symbol
 _atom_site_label
 _atom_site_symmetry_multiplicity
 _atom_site_fract_x
 _atom_site_fract_y
 _atom_site_fract_z
 _atom_site_occupancy
  S  S0  1  0.67539502  0.17216606  0.87531604  1
  S  S1  1  0.11753078  0.77684368  0.71241034  1
  S  S2  1  0.15259095  0.52299830  0.73602805  1
  S  S3  1  0.32460498  0.67216606  0.12468396  1
  S  S4  1  0.84740905  0.02299830  0.26397195  1
  S  S5  1  0.88246922  0.27684368  0.28758966  1
  N  N6  1  0.24741931  0.51412167  0.98310252  1
  N  N7  1  0.25456321  0.80418964  0.95835165  1
  N  N8  1  0.74543679  0.30418964  0.04164835  1
  N  N9  1  0.75258069  0.01412167  0.01689748  1
  Cl  Cl10  1  0.49915839  0.98946871  0.40546622  1
  Cl  Cl11  1  0.50084161  0.48946871  0.59453378  1
  Cl  Cl12  1  0.89258068  0.64741193  0.28429936  1
  Cl  Cl13  1  0.10741932  0.14741193  0.71570064  1
