# generated using pymatgen
data_MoO2
_symmetry_space_group_name_H-M   'P 1'
_cell_length_a   2.99859917
_cell_length_b   2.99859975
_cell_length_c   10.78202363
_cell_angle_alpha   90.00000000
_cell_angle_beta   90.00000000
_cell_angle_gamma   119.99999367
_symmetry_Int_Tables_number   1
_chemical_formula_structural   MoO2
_chemical_formula_sum   'Mo2 O4'
_cell_volume   83.95911572
_cell_formula_units_Z   2
loop_
 _symmetry_equiv_pos_site_id
 _symmetry_equiv_pos_as_xyz
  1  'x, y, z'
loop_
 _atom_site_type_symbol
 _atom_site_label
 _atom_site_symmetry_multiplicity
 _atom_site_fract_x
 _atom_site_fract_y
 _atom_site_fract_z
 _atom_site_occupancy
  Mo  Mo0  1  0.66666700  0.33333300  0.75000000  1
  Mo  Mo1  1  0.33333300  0.66666700  0.25000000  1
  O  O2  1  0.33333300  0.66666700  0.41360284  1
  O  O3  1  0.66666700  0.33333300  0.91360284  1
  O  O4  1  0.33333300  0.66666700  0.08639716  1
  O  O5  1  0.66666700  0.33333300  0.58639716  1
