# generated using pymatgen
data_Sr2FeClO3
_symmetry_space_group_name_H-M   'P 1'
_cell_length_a   3.91430941
_cell_length_b   3.91430941
_cell_length_c   14.42204569
_cell_angle_alpha   90.00000000
_cell_angle_beta   90.00000000
_cell_angle_gamma   90.00000000
_symmetry_Int_Tables_number   1
_chemical_formula_structural   Sr2FeClO3
_chemical_formula_sum   'Sr4 Fe2 Cl2 O6'
_cell_volume   220.97196207
_cell_formula_units_Z   2
loop_
 _symmetry_equiv_pos_site_id
 _symmetry_equiv_pos_as_xyz
  1  'x, y, z'
loop_
 _atom_site_type_symbol
 _atom_site_label
 _atom_site_symmetry_multiplicity
 _atom_site_fract_x
 _atom_site_fract_y
 _atom_site_fract_z
 _atom_site_occupancy
  Sr  Sr0  1  0.00000000  0.50000000  0.65550877  1
  Sr  Sr1  1  0.00000000  0.50000000  0.90349768  1
  Sr  Sr2  1  0.50000000  0.00000000  0.09650232  1
  Sr  Sr3  1  0.50000000  0.00000000  0.34449123  1
  Fe  Fe4  1  0.50000000  0.00000000  0.79170098  1
  Fe  Fe5  1  0.00000000  0.50000000  0.20829902  1
  Cl  Cl6  1  0.50000000  0.00000000  0.57385160  1
  Cl  Cl7  1  0.00000000  0.50000000  0.42614840  1
  O  O8  1  0.50000000  0.50000000  0.77050239  1
  O  O9  1  0.00000000  0.50000000  0.07480484  1
  O  O10  1  0.50000000  0.50000000  0.22949761  1
  O  O11  1  0.00000000  0.00000000  0.77050239  1
  O  O12  1  0.00000000  0.00000000  0.22949761  1
  O  O13  1  0.50000000  0.00000000  0.92519516  1
