# generated using pymatgen
data_BaBrCl
_symmetry_space_group_name_H-M   'P 1'
_cell_length_a   4.94309965
_cell_length_b   7.97205513
_cell_length_c   10.00975989
_cell_angle_alpha   90.00000000
_cell_angle_beta   90.00000000
_cell_angle_gamma   90.00000000
_symmetry_Int_Tables_number   1
_chemical_formula_structural   BaBrCl
_chemical_formula_sum   'Ba4 Br4 Cl4'
_cell_volume   394.45123359
_cell_formula_units_Z   4
loop_
 _symmetry_equiv_pos_site_id
 _symmetry_equiv_pos_as_xyz
  1  'x, y, z'
loop_
 _atom_site_type_symbol
 _atom_site_label
 _atom_site_symmetry_multiplicity
 _atom_site_fract_x
 _atom_site_fract_y
 _atom_site_fract_z
 _atom_site_occupancy
  Ba  Ba0  1  0.75000000  0.76979347  0.10595802  1
  Ba  Ba1  1  0.25000000  0.23020653  0.89404198  1
  Ba  Ba2  1  0.75000000  0.26979347  0.39404198  1
  Ba  Ba3  1  0.25000000  0.73020653  0.60595802  1
  Br  Br4  1  0.75000000  0.85671188  0.41991390  1
  Br  Br5  1  0.25000000  0.14328812  0.58008610  1
  Br  Br6  1  0.75000000  0.35671188  0.08008610  1
  Br  Br7  1  0.25000000  0.64328812  0.91991390  1
  Cl  Cl8  1  0.75000000  -0.01634872  0.83826222  1
  Cl  Cl9  1  0.25000000  0.01634872  0.16173778  1
  Cl  Cl10  1  0.75000000  0.48365128  0.66173778  1
  Cl  Cl11  1  0.25000000  0.51634872  0.33826222  1
