# generated using pymatgen
data_Tb(CuS)2
_symmetry_space_group_name_H-M   'P 1'
_cell_length_a   3.95882099
_cell_length_b   3.95882095
_cell_length_c   6.38198898
_cell_angle_alpha   89.92839147
_cell_angle_beta   90.07160633
_cell_angle_gamma   119.98356904
_symmetry_Int_Tables_number   1
_chemical_formula_structural   Tb(CuS)2
_chemical_formula_sum   'Tb1 Cu2 S2'
_cell_volume   86.63429299
_cell_formula_units_Z   1
loop_
 _symmetry_equiv_pos_site_id
 _symmetry_equiv_pos_as_xyz
  1  'x, y, z'
loop_
 _atom_site_type_symbol
 _atom_site_label
 _atom_site_symmetry_multiplicity
 _atom_site_fract_x
 _atom_site_fract_y
 _atom_site_fract_z
 _atom_site_occupancy
  Tb  Tb0  1  0.00000000  0.00000000  0.00000000  1
  Cu  Cu1  1  0.66614761  0.33385239  0.67210604  1
  Cu  Cu2  1  0.33385239  0.66614761  0.32789396  1
  S  S3  1  0.66705667  0.33294333  0.26877567  1
  S  S4  1  0.33294333  0.66705667  0.73122433  1
