# generated using pymatgen
data_InAg(PS3)2
_symmetry_space_group_name_H-M   'P 1'
_cell_length_a   6.23328383
_cell_length_b   6.23328383
_cell_length_c   12.97319663
_cell_angle_alpha   90.00000000
_cell_angle_beta   90.00000000
_cell_angle_gamma   119.99999504
_symmetry_Int_Tables_number   1
_chemical_formula_structural   InAg(PS3)2
_chemical_formula_sum   'In2 Ag2 P4 S12'
_cell_volume   436.52735022
_cell_formula_units_Z   2
loop_
 _symmetry_equiv_pos_site_id
 _symmetry_equiv_pos_as_xyz
  1  'x, y, z'
loop_
 _atom_site_type_symbol
 _atom_site_label
 _atom_site_symmetry_multiplicity
 _atom_site_fract_x
 _atom_site_fract_y
 _atom_site_fract_z
 _atom_site_occupancy
  In  In0  1  0.00000000  0.00000000  0.25000000  1
  In  In1  1  0.00000000  0.00000000  0.75000000  1
  Ag  Ag2  1  0.66666700  0.33333300  0.25000000  1
  Ag  Ag3  1  0.33333300  0.66666700  0.75000000  1
  P  P4  1  0.66666700  0.33333300  0.66236333  1
  P  P5  1  0.66666700  0.33333300  0.83763667  1
  P  P6  1  0.33333300  0.66666700  0.33763667  1
  P  P7  1  0.33333300  0.66666700  0.16236333  1
  S  S8  1  0.31937331  0.97466572  0.38169740  1
  S  S9  1  0.02533428  0.34470659  0.38169740  1
  S  S10  1  0.65529341  0.68062669  0.38169740  1
  S  S11  1  0.02533428  0.68062669  0.11830260  1
  S  S12  1  0.65529341  0.97466572  0.11830260  1
  S  S13  1  0.34470659  0.31937331  0.61830260  1
  S  S14  1  0.68062669  0.02533428  0.61830260  1
  S  S15  1  0.97466572  0.65529341  0.61830260  1
  S  S16  1  0.68062669  0.65529341  0.88169740  1
  S  S17  1  0.97466572  0.31937331  0.88169740  1
  S  S18  1  0.31937331  0.34470659  0.11830260  1
  S  S19  1  0.34470659  0.02533428  0.88169740  1
