# generated using pymatgen
data_ScCl3
_symmetry_space_group_name_H-M   'P 1'
_cell_length_a   6.90482789
_cell_length_b   6.90482764
_cell_length_c   6.90482752
_cell_angle_alpha   54.83378296
_cell_angle_beta   54.83377956
_cell_angle_gamma   54.83378489
_symmetry_Int_Tables_number   1
_chemical_formula_structural   ScCl3
_chemical_formula_sum   'Sc2 Cl6'
_cell_volume   204.77941767
_cell_formula_units_Z   2
loop_
 _symmetry_equiv_pos_site_id
 _symmetry_equiv_pos_as_xyz
  1  'x, y, z'
loop_
 _atom_site_type_symbol
 _atom_site_label
 _atom_site_symmetry_multiplicity
 _atom_site_fract_x
 _atom_site_fract_y
 _atom_site_fract_z
 _atom_site_occupancy
  Sc  Sc0  1  0.66655884  0.66655884  0.66655884  1
  Sc  Sc1  1  0.33344116  0.33344116  0.33344116  1
  Cl  Cl2  1  0.56442996  0.27372748  0.91980499  1
  Cl  Cl3  1  0.27372748  0.91980499  0.56442996  1
  Cl  Cl4  1  0.08019501  0.43557004  0.72627252  1
  Cl  Cl5  1  0.72627252  0.08019501  0.43557004  1
  Cl  Cl6  1  0.43557004  0.72627252  0.08019501  1
  Cl  Cl7  1  0.91980499  0.56442996  0.27372748  1
