# generated using pymatgen
data_TeO3
_symmetry_space_group_name_H-M   'P 1'
_cell_length_a   3.76198419
_cell_length_b   3.76198549
_cell_length_c   11.04587124
_cell_angle_alpha   90.00000000
_cell_angle_beta   90.00000000
_cell_angle_gamma   120.00000599
_symmetry_Int_Tables_number   1
_chemical_formula_structural   TeO3
_chemical_formula_sum   'Te2 O6'
_cell_volume   135.38316550
_cell_formula_units_Z   2
loop_
 _symmetry_equiv_pos_site_id
 _symmetry_equiv_pos_as_xyz
  1  'x, y, z'
loop_
 _atom_site_type_symbol
 _atom_site_label
 _atom_site_symmetry_multiplicity
 _atom_site_fract_x
 _atom_site_fract_y
 _atom_site_fract_z
 _atom_site_occupancy
  Te  Te0  1  0.66666500  0.33333200  0.75000000  1
  Te  Te1  1  0.33333400  0.66666800  0.25000000  1
  O  O2  1  0.33333400  0.66666800  0.41285591  1
  O  O3  1  0.66666500  0.33333200  0.91285591  1
  O  O4  1  0.66666500  0.33333200  0.58714509  1
  O  O5  1  0.33333400  0.66666800  0.08714409  1
  O  O6  1  0.00000000  0.00000000  0.25000000  1
  O  O7  1  0.00000000  0.00000000  0.75000000  1
