# generated using pymatgen
data_ZrTiSe4
_symmetry_space_group_name_H-M   'P 1'
_cell_length_a   3.67883222
_cell_length_b   6.10787366
_cell_length_c   6.37834747
_cell_angle_alpha   90.09854394
_cell_angle_beta   90.00000000
_cell_angle_gamma   90.00000000
_symmetry_Int_Tables_number   1
_chemical_formula_structural   ZrTiSe4
_chemical_formula_sum   'Zr1 Ti1 Se4'
_cell_volume   143.32025045
_cell_formula_units_Z   1
loop_
 _symmetry_equiv_pos_site_id
 _symmetry_equiv_pos_as_xyz
  1  'x, y, z'
loop_
 _atom_site_type_symbol
 _atom_site_label
 _atom_site_symmetry_multiplicity
 _atom_site_fract_x
 _atom_site_fract_y
 _atom_site_fract_z
 _atom_site_occupancy
  Zr  Zr0  1  0.50000000  0.00000000  0.50000000  1
  Ti  Ti1  1  0.00000000  0.00000000  0.00000000  1
  Se  Se2  1  0.00000000  0.25964305  0.32172961  1
  Se  Se3  1  0.50000000  0.74909982  0.15445937  1
  Se  Se4  1  0.50000000  0.25090018  0.84554063  1
  Se  Se5  1  0.00000000  0.74035695  0.67827039  1
