# generated using pymatgen
data_AgPb4ClO4
_symmetry_space_group_name_H-M   'P 1'
_cell_length_a   6.34537628
_cell_length_b   8.28533783
_cell_length_c   8.28533783
_cell_angle_alpha   90.00000000
_cell_angle_beta   90.00000000
_cell_angle_gamma   90.00000000
_symmetry_Int_Tables_number   1
_chemical_formula_structural   AgPb4ClO4
_chemical_formula_sum   'Ag2 Pb8 Cl2 O8'
_cell_volume   435.58992250
_cell_formula_units_Z   2
loop_
 _symmetry_equiv_pos_site_id
 _symmetry_equiv_pos_as_xyz
  1  'x, y, z'
loop_
 _atom_site_type_symbol
 _atom_site_label
 _atom_site_symmetry_multiplicity
 _atom_site_fract_x
 _atom_site_fract_y
 _atom_site_fract_z
 _atom_site_occupancy
  Ag  Ag0  1  0.91431017  0.75000000  0.75000000  1
  Ag  Ag1  1  0.08568983  0.25000000  0.25000000  1
  Pb  Pb2  1  0.23429444  0.60295511  0.06222125  1
  Pb  Pb3  1  0.76570556  0.93777875  0.10295511  1
  Pb  Pb4  1  0.76570556  0.56222125  0.39704489  1
  Pb  Pb5  1  0.76570556  0.39704489  0.93777875  1
  Pb  Pb6  1  0.23429444  0.06222125  0.89704489  1
  Pb  Pb7  1  0.23429444  0.43777875  0.60295511  1
  Pb  Pb8  1  0.23429444  0.89704489  0.43777875  1
  Pb  Pb9  1  0.76570556  0.10295511  0.56222125  1
  Cl  Cl10  1  0.48886130  0.25000000  0.25000000  1
  Cl  Cl11  1  0.51113870  0.75000000  0.75000000  1
  O  O12  1  0.91971395  0.99350671  0.34077402  1
  O  O13  1  0.08028605  0.84077402  0.00649329  1
  O  O14  1  0.08028605  0.00649329  0.65922598  1
  O  O15  1  0.08028605  0.65922598  0.49350671  1
  O  O16  1  0.08028605  0.49350671  0.84077402  1
  O  O17  1  0.91971395  0.50649329  0.15922598  1
  O  O18  1  0.91971395  0.34077402  0.50649329  1
  O  O19  1  0.91971395  0.15922598  0.99350671  1
