# generated using pymatgen
data_YbCl3
_symmetry_space_group_name_H-M   'P 1'
_cell_length_a   4.86836859
_cell_length_b   7.50618364
_cell_length_c   8.22958248
_cell_angle_alpha   62.86756430
_cell_angle_beta   72.80959340
_cell_angle_gamma   49.60433954
_symmetry_Int_Tables_number   1
_chemical_formula_structural   YbCl3
_chemical_formula_sum   'Yb2 Cl6'
_cell_volume   203.83000842
_cell_formula_units_Z   2
loop_
 _symmetry_equiv_pos_site_id
 _symmetry_equiv_pos_as_xyz
  1  'x, y, z'
loop_
 _atom_site_type_symbol
 _atom_site_label
 _atom_site_symmetry_multiplicity
 _atom_site_fract_x
 _atom_site_fract_y
 _atom_site_fract_z
 _atom_site_occupancy
  Yb  Yb0  1  -0.00000000  0.16135796  0.67728407  1
  Yb  Yb1  1  0.00000000  0.83864204  0.32271593  1
  Cl  Cl2  1  0.24917512  0.07952120  0.34276342  1
  Cl  Cl3  1  0.75082488  0.92047880  0.65723658  1
  Cl  Cl4  1  0.75082488  0.57771538  0.34276342  1
  Cl  Cl5  1  0.24917512  0.42228462  0.65723658  1
  Cl  Cl6  1  0.25220207  0.74775860  0.00000000  1
  Cl  Cl7  1  0.74779793  0.25224140  -0.00000000  1
