# generated using pymatgen
data_TePdI2
_symmetry_space_group_name_H-M   'P 1'
_cell_length_a   4.07069466
_cell_length_b   7.04955179
_cell_length_c   9.46135780
_cell_angle_alpha   67.46774043
_cell_angle_beta   89.86009154
_cell_angle_gamma   89.93736564
_symmetry_Int_Tables_number   1
_chemical_formula_structural   TePdI2
_chemical_formula_sum   'Te2 Pd2 I4'
_cell_volume   250.78189434
_cell_formula_units_Z   2
loop_
 _symmetry_equiv_pos_site_id
 _symmetry_equiv_pos_as_xyz
  1  'x, y, z'
loop_
 _atom_site_type_symbol
 _atom_site_label
 _atom_site_symmetry_multiplicity
 _atom_site_fract_x
 _atom_site_fract_y
 _atom_site_fract_z
 _atom_site_occupancy
  Te  Te0  1  0.24828503  0.51056724  0.14961299  1
  Te  Te1  1  0.75171497  0.48943276  0.85038701  1
  Pd  Pd2  1  0.25012753  0.24195777  0.01727161  1
  Pd  Pd3  1  0.74987247  0.75804223  0.98272839  1
  I  I4  1  0.25177768  0.04011868  0.81298698  1
  I  I5  1  0.24960504  0.71047077  0.57894774  1
  I  I6  1  0.74822232  0.95988132  0.18701302  1
  I  I7  1  0.75039496  0.28952923  0.42105226  1
