# generated using pymatgen
data_Sb3Pb
_symmetry_space_group_name_H-M   'P 1'
_cell_length_a   6.81867088
_cell_length_b   6.81867096
_cell_length_c   5.77882730
_cell_angle_alpha   90.00000000
_cell_angle_beta   90.00000000
_cell_angle_gamma   120.00000453
_symmetry_Int_Tables_number   1
_chemical_formula_structural   Sb3Pb
_chemical_formula_sum   'Sb6 Pb2'
_cell_volume   232.68575127
_cell_formula_units_Z   2
loop_
 _symmetry_equiv_pos_site_id
 _symmetry_equiv_pos_as_xyz
  1  'x, y, z'
loop_
 _atom_site_type_symbol
 _atom_site_label
 _atom_site_symmetry_multiplicity
 _atom_site_fract_x
 _atom_site_fract_y
 _atom_site_fract_z
 _atom_site_occupancy
  Sb  Sb0  1  0.16410244  0.32820488  0.24999900  1
  Sb  Sb1  1  0.67179512  0.83589756  0.24999900  1
  Sb  Sb2  1  0.16410244  0.83589756  0.24999900  1
  Sb  Sb3  1  0.83589856  0.67179612  0.74999900  1
  Sb  Sb4  1  0.32820488  0.16410244  0.74999900  1
  Sb  Sb5  1  0.83589756  0.16410244  0.74999900  1
  Pb  Pb6  1  0.33333400  0.66666700  0.74999900  1
  Pb  Pb7  1  0.66666600  0.33333300  0.24999900  1
