# generated using pymatgen
data_GaGeTe
_symmetry_space_group_name_H-M   'P 1'
_cell_length_a   11.98325851
_cell_length_b   11.98325828
_cell_length_c   11.98325809
_cell_angle_alpha   19.76489111
_cell_angle_beta   19.76489411
_cell_angle_gamma   19.76489386
_symmetry_Int_Tables_number   1
_chemical_formula_structural   GaGeTe
_chemical_formula_sum   'Ga2 Ge2 Te2'
_cell_volume   172.10270974
_cell_formula_units_Z   2
loop_
 _symmetry_equiv_pos_site_id
 _symmetry_equiv_pos_as_xyz
  1  'x, y, z'
loop_
 _atom_site_type_symbol
 _atom_site_label
 _atom_site_symmetry_multiplicity
 _atom_site_fract_x
 _atom_site_fract_y
 _atom_site_fract_z
 _atom_site_occupancy
  Ga  Ga0  1  0.25196772  0.25196772  0.25196772  1
  Ga  Ga1  1  0.74803228  0.74803228  0.74803228  1
  Ge  Ge2  1  0.32189633  0.32189633  0.32189633  1
  Ge  Ge3  1  0.67810367  0.67810367  0.67810367  1
  Te  Te4  1  0.11755949  0.11755949  0.11755949  1
  Te  Te5  1  0.88244051  0.88244051  0.88244051  1
