# generated using pymatgen
data_RuCl3
_symmetry_space_group_name_H-M   'P 1'
_cell_length_a   5.96651052
_cell_length_b   5.96650993
_cell_length_c   17.16025597
_cell_angle_alpha   90.00000000
_cell_angle_beta   90.00000000
_cell_angle_gamma   120.00000326
_symmetry_Int_Tables_number   1
_chemical_formula_structural   RuCl3
_chemical_formula_sum   'Ru6 Cl18'
_cell_volume   529.04809804
_cell_formula_units_Z   6
loop_
 _symmetry_equiv_pos_site_id
 _symmetry_equiv_pos_as_xyz
  1  'x, y, z'
loop_
 _atom_site_type_symbol
 _atom_site_label
 _atom_site_symmetry_multiplicity
 _atom_site_fract_x
 _atom_site_fract_y
 _atom_site_fract_z
 _atom_site_occupancy
  Ru  Ru0  1  0.55842219  0.11684438  0.16666700  1
  Ru  Ru1  1  0.88315562  0.44157781  0.50000000  1
  Ru  Ru2  1  0.55842219  0.44157781  0.83333300  1
  Ru  Ru3  1  0.22477112  0.44954225  0.16666700  1
  Ru  Ru4  1  0.55045775  0.77522888  0.50000000  1
  Ru  Ru5  1  0.22477112  0.77522888  0.83333300  1
  Cl  Cl6  1  0.54556809  0.43734413  0.08811631  1
  Cl  Cl7  1  0.89177604  0.43734413  0.24521769  1
  Cl  Cl8  1  0.56265587  0.10822396  0.42144931  1
  Cl  Cl9  1  0.23793753  0.12931923  0.24557320  1
  Cl  Cl10  1  0.21685586  0.76269936  0.57837027  1
  Cl  Cl11  1  0.87068077  0.10861730  0.57890620  1
  Cl  Cl12  1  0.56265587  0.45443191  0.57855069  1
  Cl  Cl13  1  0.23730064  0.45415650  0.91170327  1
  Cl  Cl14  1  0.89138270  0.12931923  0.08776080  1
  Cl  Cl15  1  0.54584350  0.78314414  0.24503727  1
  Cl  Cl16  1  0.23793753  0.10861730  0.75442680  1
  Cl  Cl17  1  0.21685586  0.45415650  0.42162973  1
  Cl  Cl18  1  0.87068077  0.76206247  0.42109380  1
  Cl  Cl19  1  0.54556809  0.10822396  0.91188369  1
  Cl  Cl20  1  0.89138270  0.76206247  0.91223920  1
  Cl  Cl21  1  0.54584350  0.76269936  0.75496273  1
  Cl  Cl22  1  0.89177604  0.45443191  0.75478231  1
  Cl  Cl23  1  0.23730064  0.78314414  0.08829673  1
