# generated using pymatgen
data_Nb3TeCl7
_symmetry_space_group_name_H-M   'P 1'
_cell_length_a   6.94334415
_cell_length_b   6.94334415
_cell_length_c   12.65569494
_cell_angle_alpha   90.00000000
_cell_angle_beta   90.00000000
_cell_angle_gamma   119.99999681
_symmetry_Int_Tables_number   1
_chemical_formula_structural   Nb3TeCl7
_chemical_formula_sum   'Nb6 Te2 Cl14'
_cell_volume   528.38931474
_cell_formula_units_Z   2
loop_
 _symmetry_equiv_pos_site_id
 _symmetry_equiv_pos_as_xyz
  1  'x, y, z'
loop_
 _atom_site_type_symbol
 _atom_site_label
 _atom_site_symmetry_multiplicity
 _atom_site_fract_x
 _atom_site_fract_y
 _atom_site_fract_z
 _atom_site_occupancy
  Nb  Nb0  1  0.05334490  0.52667295  0.75959911  1
  Nb  Nb1  1  0.47332705  0.52667295  0.75959911  1
  Nb  Nb2  1  0.94665510  0.47332705  0.24040089  1
  Nb  Nb3  1  0.52667295  0.47332705  0.24040089  1
  Nb  Nb4  1  0.52667295  0.05334490  0.24040089  1
  Nb  Nb5  1  0.47332705  0.94665510  0.75959911  1
  Te  Te6  1  0.33333300  0.66666700  0.58929814  1
  Te  Te7  1  0.66666700  0.33333300  0.41070186  1
  Cl  Cl8  1  0.16732373  0.83267627  0.88518915  1
  Cl  Cl9  1  0.66535154  0.83267627  0.88518915  1
  Cl  Cl10  1  0.33333300  0.66666700  0.13133499  1
  Cl  Cl11  1  0.66666700  0.33333300  0.86866501  1
  Cl  Cl12  1  0.83267627  0.16732373  0.11481085  1
  Cl  Cl13  1  0.33464846  0.16732373  0.11481085  1
  Cl  Cl14  1  0.16531250  0.33062500  0.34245940  1
  Cl  Cl15  1  0.83468750  0.16531250  0.65754060  1
  Cl  Cl16  1  0.83468750  0.66937500  0.65754060  1
  Cl  Cl17  1  0.16732373  0.33464846  0.88518915  1
  Cl  Cl18  1  0.16531250  0.83468750  0.34245940  1
  Cl  Cl19  1  0.66937500  0.83468750  0.34245940  1
  Cl  Cl20  1  0.33062500  0.16531250  0.65754060  1
  Cl  Cl21  1  0.83267627  0.66535154  0.11481085  1
