# generated using pymatgen
data_FeCl3
_symmetry_space_group_name_H-M   'P 1'
_cell_length_a   5.79197597
_cell_length_b   5.79197539
_cell_length_c   16.78003862
_cell_angle_alpha   90.00000000
_cell_angle_beta   90.00000000
_cell_angle_gamma   119.99999865
_symmetry_Int_Tables_number   1
_chemical_formula_structural   FeCl3
_chemical_formula_sum   'Fe6 Cl18'
_cell_volume   487.50273110
_cell_formula_units_Z   6
loop_
 _symmetry_equiv_pos_site_id
 _symmetry_equiv_pos_as_xyz
  1  'x, y, z'
loop_
 _atom_site_type_symbol
 _atom_site_label
 _atom_site_symmetry_multiplicity
 _atom_site_fract_x
 _atom_site_fract_y
 _atom_site_fract_z
 _atom_site_occupancy
  Fe  Fe0  1  0.33333300  0.66666700  0.66784824  1
  Fe  Fe1  1  0.66666700  0.33333300  0.33220020  1
  Fe  Fe2  1  0.33333300  0.66666700  0.33215176  1
  Fe  Fe3  1  0.00000000  0.00000000  0.00000000  1
  Fe  Fe4  1  0.66666700  0.33333300  0.66779980  1
  Fe  Fe5  1  0.33333300  0.66666700  0.00000000  1
  Cl  Cl6  1  0.35520844  -0.00016566  0.59194797  1
  Cl  Cl7  1  0.00016566  0.64479156  0.40805203  1
  Cl  Cl8  1  0.00016566  0.35537409  0.59194797  1
  Cl  Cl9  1  0.64462591  -0.00016566  0.40805203  1
  Cl  Cl10  1  0.66694820  0.97678770  0.07606235  1
  Cl  Cl11  1  0.64317360  0.64272998  0.25600572  1
  Cl  Cl12  1  0.35520844  0.35537409  0.40805203  1
  Cl  Cl13  1  0.35727002  0.35682640  0.74399428  1
  Cl  Cl14  1  -0.00044261  0.64272998  0.74399428  1
  Cl  Cl15  1  0.30983950  0.33305180  0.07606235  1
  Cl  Cl16  1  0.66694820  0.69016050  0.92393765  1
  Cl  Cl17  1  0.02321230  0.69016050  0.07606235  1
  Cl  Cl18  1  0.64317360  0.00044261  0.74399428  1
  Cl  Cl19  1  0.35727002  0.00044261  0.25600572  1
  Cl  Cl20  1  -0.00044261  0.35682640  0.25600572  1
  Cl  Cl21  1  0.02321230  0.33305180  0.92393765  1
  Cl  Cl22  1  0.30983950  0.97678770  0.92393765  1
  Cl  Cl23  1  0.64462591  0.64479156  0.59194797  1
