# generated using pymatgen
data_CuBi(PSe3)2
_symmetry_space_group_name_H-M   'P 1'
_cell_length_a   6.61376170
_cell_length_b   6.61376121
_cell_length_c   13.29478967
_cell_angle_alpha   90.00000000
_cell_angle_beta   90.00000000
_cell_angle_gamma   119.99999748
_symmetry_Int_Tables_number   1
_chemical_formula_structural   CuBi(PSe3)2
_chemical_formula_sum   'Cu2 Bi2 P4 Se12'
_cell_volume   503.62718774
_cell_formula_units_Z   2
loop_
 _symmetry_equiv_pos_site_id
 _symmetry_equiv_pos_as_xyz
  1  'x, y, z'
loop_
 _atom_site_type_symbol
 _atom_site_label
 _atom_site_symmetry_multiplicity
 _atom_site_fract_x
 _atom_site_fract_y
 _atom_site_fract_z
 _atom_site_occupancy
  Cu  Cu0  1  0.00000000  0.00000000  0.75000000  1
  Cu  Cu1  1  0.00000000  0.00000000  0.25000000  1
  Bi  Bi2  1  0.33333300  0.66666700  0.75000000  1
  Bi  Bi3  1  0.66666700  0.33333300  0.25000000  1
  P  P4  1  0.66666700  0.33333300  0.83642361  1
  P  P5  1  0.66666700  0.33333300  0.66357639  1
  P  P6  1  0.33333300  0.66666700  0.16357639  1
  P  P7  1  0.33333300  0.66666700  0.33642361  1
  Se  Se8  1  0.29681546  0.32569102  0.11827011  1
  Se  Se9  1  0.97112344  0.67430898  0.61827011  1
  Se  Se10  1  0.02887656  0.70318454  0.11827011  1
  Se  Se11  1  0.70318454  0.67430898  0.88172989  1
  Se  Se12  1  0.32569102  0.02887656  0.88172989  1
  Se  Se13  1  0.70318454  0.02887656  0.61827011  1
  Se  Se14  1  0.97112344  0.29681546  0.88172989  1
  Se  Se15  1  0.02887656  0.32569102  0.38172989  1
  Se  Se16  1  0.32569102  0.29681546  0.61827011  1
  Se  Se17  1  0.67430898  0.97112344  0.11827011  1
  Se  Se18  1  0.29681546  0.97112344  0.38172989  1
  Se  Se19  1  0.67430898  0.70318454  0.38172989  1
