# generated using pymatgen
data_DyTe3
_symmetry_space_group_name_H-M   'P 1'
_cell_length_a   4.04540675
_cell_length_b   4.59957372
_cell_length_c   14.10384814
_cell_angle_alpha   90.00000000
_cell_angle_beta   98.24550609
_cell_angle_gamma   90.00000000
_symmetry_Int_Tables_number   1
_chemical_formula_structural   DyTe3
_chemical_formula_sum   'Dy2 Te6'
_cell_volume   259.71951146
_cell_formula_units_Z   2
loop_
 _symmetry_equiv_pos_site_id
 _symmetry_equiv_pos_as_xyz
  1  'x, y, z'
loop_
 _atom_site_type_symbol
 _atom_site_label
 _atom_site_symmetry_multiplicity
 _atom_site_fract_x
 _atom_site_fract_y
 _atom_site_fract_z
 _atom_site_occupancy
  Dy  Dy0  1  0.94858351  0.25000000  0.89716602  1
  Dy  Dy1  1  0.05141649  0.75000000  0.10283398  1
  Te  Te2  1  0.83552856  0.25000000  0.67105612  1
  Te  Te3  1  0.16447144  0.75000000  0.32894388  1
  Te  Te4  1  0.68735867  0.25000000  0.37471633  1
  Te  Te5  1  0.31264133  0.75000000  0.62528367  1
  Te  Te6  1  0.55275255  0.25000000  0.10550609  1
  Te  Te7  1  0.44724745  0.75000000  0.89449391  1
