# generated using pymatgen
data_KrF2
_symmetry_space_group_name_H-M   'P 1'
_cell_length_a   4.08022466
_cell_length_b   4.08022461
_cell_length_c   4.36785583
_cell_angle_alpha   117.84454581
_cell_angle_beta   117.84454060
_cell_angle_gamma   90.00000147
_symmetry_Int_Tables_number   1
_chemical_formula_structural   KrF2
_chemical_formula_sum   'Kr1 F2'
_cell_volume   54.59514937
_cell_formula_units_Z   1
loop_
 _symmetry_equiv_pos_site_id
 _symmetry_equiv_pos_as_xyz
  1  'x, y, z'
loop_
 _atom_site_type_symbol
 _atom_site_label
 _atom_site_symmetry_multiplicity
 _atom_site_fract_x
 _atom_site_fract_y
 _atom_site_fract_z
 _atom_site_occupancy
  Kr  Kr0  1  0.00000000  0.00000000  0.00000000  1
  F  F1  1  0.70270484  0.70270484  0.40541068  1
  F  F2  1  0.29729516  0.29729516  0.59458932  1
