# generated using pymatgen
data_HgI2
_symmetry_space_group_name_H-M   'P 1'
_cell_length_a   4.44440291
_cell_length_b   4.44440310
_cell_length_c   13.73533509
_cell_angle_alpha   90.00000000
_cell_angle_beta   90.00000000
_cell_angle_gamma   117.68709558
_symmetry_Int_Tables_number   1
_chemical_formula_structural   HgI2
_chemical_formula_sum   'Hg2 I4'
_cell_volume   240.24472182
_cell_formula_units_Z   2
loop_
 _symmetry_equiv_pos_site_id
 _symmetry_equiv_pos_as_xyz
  1  'x, y, z'
loop_
 _atom_site_type_symbol
 _atom_site_label
 _atom_site_symmetry_multiplicity
 _atom_site_fract_x
 _atom_site_fract_y
 _atom_site_fract_z
 _atom_site_occupancy
  Hg  Hg0  1  0.65014877  0.34985123  0.50125823  1
  Hg  Hg1  1  0.34985123  0.65014877  0.00125823  1
  I  I2  1  0.60246127  0.39753873  0.13779199  1
  I  I3  1  0.39753873  0.60246127  0.63779199  1
  I  I4  1  0.09745502  0.90254498  0.86424977  1
  I  I5  1  0.90254498  0.09745502  0.36424977  1
