# generated using pymatgen
data_YBiO3
_symmetry_space_group_name_H-M   'P 1'
_cell_length_a   6.07824830
_cell_length_b   6.07824802
_cell_length_c   6.07824811
_cell_angle_alpha   59.39262368
_cell_angle_beta   59.39263150
_cell_angle_gamma   59.39261990
_symmetry_Int_Tables_number   1
_chemical_formula_structural   YBiO3
_chemical_formula_sum   'Y2 Bi2 O6'
_cell_volume   156.59412245
_cell_formula_units_Z   2
loop_
 _symmetry_equiv_pos_site_id
 _symmetry_equiv_pos_as_xyz
  1  'x, y, z'
loop_
 _atom_site_type_symbol
 _atom_site_label
 _atom_site_symmetry_multiplicity
 _atom_site_fract_x
 _atom_site_fract_y
 _atom_site_fract_z
 _atom_site_occupancy
  Y  Y0  1  0.14058556  0.14058556  0.14058556  1
  Y  Y1  1  0.85941444  0.85941444  0.85941444  1
  Bi  Bi2  1  0.35972349  0.35972349  0.35972349  1
  Bi  Bi3  1  0.64027651  0.64027651  0.64027651  1
  O  O4  1  0.00852966  0.78143177  0.45578870  1
  O  O5  1  0.54421130  0.99147034  0.21856823  1
  O  O6  1  0.21856823  0.54421130  0.99147034  1
  O  O7  1  0.78143177  0.45578870  0.00852966  1
  O  O8  1  0.45578870  0.00852966  0.78143177  1
  O  O9  1  0.99147034  0.21856823  0.54421130  1
