# generated using pymatgen
data_CBrN
_symmetry_space_group_name_H-M   'P 1'
_cell_length_a   3.92875721
_cell_length_b   5.76186904
_cell_length_c   5.70758778
_cell_angle_alpha   90.00000000
_cell_angle_beta   90.00000000
_cell_angle_gamma   90.00000000
_symmetry_Int_Tables_number   1
_chemical_formula_structural   CBrN
_chemical_formula_sum   'C2 Br2 N2'
_cell_volume   129.20257619
_cell_formula_units_Z   2
loop_
 _symmetry_equiv_pos_site_id
 _symmetry_equiv_pos_as_xyz
  1  'x, y, z'
loop_
 _atom_site_type_symbol
 _atom_site_label
 _atom_site_symmetry_multiplicity
 _atom_site_fract_x
 _atom_site_fract_y
 _atom_site_fract_z
 _atom_site_occupancy
  C  C0  1  0.50000000  0.45334060  0.50000000  1
  C  C1  1  0.00000000  0.54665940  0.00000000  1
  Br  Br2  1  0.50000000  0.14323006  0.50000000  1
  Br  Br3  1  0.00000000  0.85676994  0.00000000  1
  N  N4  1  0.00000000  0.34408908  0.00000000  1
  N  N5  1  0.50000000  0.65591092  0.50000000  1
