# generated using pymatgen
data_AlTeI7
_symmetry_space_group_name_H-M   'P 1'
_cell_length_a   7.77278442
_cell_length_b   7.40450064
_cell_length_c   14.42926199
_cell_angle_alpha   90.00000000
_cell_angle_beta   103.14830297
_cell_angle_gamma   90.00000000
_symmetry_Int_Tables_number   1
_chemical_formula_structural   AlTeI7
_chemical_formula_sum   'Al2 Te2 I14'
_cell_volume   808.68501072
_cell_formula_units_Z   2
loop_
 _symmetry_equiv_pos_site_id
 _symmetry_equiv_pos_as_xyz
  1  'x, y, z'
loop_
 _atom_site_type_symbol
 _atom_site_label
 _atom_site_symmetry_multiplicity
 _atom_site_fract_x
 _atom_site_fract_y
 _atom_site_fract_z
 _atom_site_occupancy
  Al  Al0  1  0.69430322  0.99859829  0.34986714  1
  Al  Al1  1  0.69430322  0.00140171  0.84986714  1
  Te  Te2  1  0.00264627  0.59835988  0.49257267  1
  Te  Te3  1  0.00264627  0.40164012  0.99257267  1
  I  I4  1  0.46973171  0.82152665  0.22484390  1
  I  I5  1  0.46973171  0.17847335  0.72484390  1
  I  I6  1  0.65188485  0.33987146  0.32767263  1
  I  I7  1  0.65188485  0.66012854  0.82767263  1
  I  I8  1  0.66622158  0.88316072  0.51362539  1
  I  I9  1  0.66622158  0.11683928  0.01362539  1
  I  I10  1  0.00890380  0.06776770  0.82755738  1
  I  I11  1  0.95079087  0.63456553  0.13402736  1
  I  I12  1  0.21727472  0.84484901  0.61243862  1
  I  I13  1  0.21727472  0.15515099  0.11243862  1
  I  I14  1  0.27614198  0.42303132  0.43287391  1
  I  I15  1  0.95079087  0.36543447  0.63402736  1
  I  I16  1  0.27614198  0.57696868  0.93287391  1
  I  I17  1  0.00890380  0.93223230  0.32755738  1
