# generated using pymatgen
data_TiBi2O5
_symmetry_space_group_name_H-M   'P 1'
_cell_length_a   4.01815274
_cell_length_b   6.50501203
_cell_length_c   10.35198543
_cell_angle_alpha   90.00000000
_cell_angle_beta   90.00000000
_cell_angle_gamma   72.01002867
_symmetry_Int_Tables_number   1
_chemical_formula_structural   TiBi2O5
_chemical_formula_sum   'Ti2 Bi4 O10'
_cell_volume   257.35298771
_cell_formula_units_Z   2
loop_
 _symmetry_equiv_pos_site_id
 _symmetry_equiv_pos_as_xyz
  1  'x, y, z'
loop_
 _atom_site_type_symbol
 _atom_site_label
 _atom_site_symmetry_multiplicity
 _atom_site_fract_x
 _atom_site_fract_y
 _atom_site_fract_z
 _atom_site_occupancy
  Ti  Ti0  1  0.16239938  0.67520124  0.25000000  1
  Ti  Ti1  1  0.83760062  0.32479876  0.75000000  1
  Bi  Bi2  1  0.14177863  0.71644174  0.92442430  1
  Bi  Bi3  1  0.14177863  0.71644174  0.57557570  1
  Bi  Bi4  1  0.85822137  0.28355826  0.07557570  1
  Bi  Bi5  1  0.85822137  0.28355826  0.42442430  1
  O  O6  1  0.06129127  0.87741747  0.38147312  1
  O  O7  1  0.06129127  0.87741747  0.11852688  1
  O  O8  1  0.72472115  0.55055869  0.91436842  1
  O  O9  1  0.72472115  0.55055869  0.58563158  1
  O  O10  1  0.29553586  0.40892928  0.75000000  1
  O  O11  1  0.70446414  0.59107072  0.25000000  1
  O  O12  1  0.27527885  0.44944131  0.08563158  1
  O  O13  1  0.27527885  0.44944131  0.41436842  1
  O  O14  1  0.93870873  0.12258253  0.61852688  1
  O  O15  1  0.93870873  0.12258253  0.88147312  1
