# generated using pymatgen
data_Ba2InBrO3
_symmetry_space_group_name_H-M   'P 1'
_cell_length_a   4.28924574
_cell_length_b   4.28924574
_cell_length_c   15.60392267
_cell_angle_alpha   90.00000000
_cell_angle_beta   90.00000000
_cell_angle_gamma   90.00000000
_symmetry_Int_Tables_number   1
_chemical_formula_structural   Ba2InBrO3
_chemical_formula_sum   'Ba4 In2 Br2 O6'
_cell_volume   287.07518026
_cell_formula_units_Z   2
loop_
 _symmetry_equiv_pos_site_id
 _symmetry_equiv_pos_as_xyz
  1  'x, y, z'
loop_
 _atom_site_type_symbol
 _atom_site_label
 _atom_site_symmetry_multiplicity
 _atom_site_fract_x
 _atom_site_fract_y
 _atom_site_fract_z
 _atom_site_occupancy
  Ba  Ba0  1  0.50000000  0.00000000  0.65813711  1
  Ba  Ba1  1  0.00000000  0.50000000  0.34186289  1
  Ba  Ba2  1  0.00000000  0.50000000  0.09274055  1
  Ba  Ba3  1  0.50000000  0.00000000  0.90725945  1
  In  In4  1  0.50000000  0.00000000  0.20738644  1
  In  In5  1  0.00000000  0.50000000  0.79261356  1
  Br  Br6  1  0.00000000  0.50000000  0.57441715  1
  Br  Br7  1  0.50000000  0.00000000  0.42558285  1
  O  O8  1  0.50000000  0.50000000  0.76938819  1
  O  O9  1  0.00000000  0.00000000  0.76938819  1
  O  O10  1  0.50000000  0.50000000  0.23061181  1
  O  O11  1  0.00000000  0.50000000  0.92765016  1
  O  O12  1  0.00000000  0.00000000  0.23061181  1
  O  O13  1  0.50000000  0.00000000  0.07234984  1
