# generated using pymatgen
data_HgBr
_symmetry_space_group_name_H-M   'P 1'
_cell_length_a   4.67749166
_cell_length_b   4.67749156
_cell_length_c   6.56648784
_cell_angle_alpha   110.86479331
_cell_angle_beta   110.86479410
_cell_angle_gamma   90.00000390
_symmetry_Int_Tables_number   1
_chemical_formula_structural   HgBr
_chemical_formula_sum   'Hg2 Br2'
_cell_volume   124.11215366
_cell_formula_units_Z   2
loop_
 _symmetry_equiv_pos_site_id
 _symmetry_equiv_pos_as_xyz
  1  'x, y, z'
loop_
 _atom_site_type_symbol
 _atom_site_label
 _atom_site_symmetry_multiplicity
 _atom_site_fract_x
 _atom_site_fract_y
 _atom_site_fract_z
 _atom_site_occupancy
  Hg  Hg0  1  0.88454157  0.88454157  0.76908415  1
  Hg  Hg1  1  0.11545843  0.11545843  0.23091585  1
  Br  Br2  1  0.65419424  0.65419424  0.30838948  1
  Br  Br3  1  0.34580576  0.34580576  0.69161052  1
