# generated using pymatgen
data_CdBr2
_symmetry_space_group_name_H-M   'P 1'
_cell_length_a   12.76069391
_cell_length_b   12.76069417
_cell_length_c   12.76069458
_cell_angle_alpha   18.14159436
_cell_angle_beta   18.14158841
_cell_angle_gamma   18.14159176
_symmetry_Int_Tables_number   1
_chemical_formula_structural   CdBr2
_chemical_formula_sum   'Cd2 Br4'
_cell_volume   175.91766399
_cell_formula_units_Z   2
loop_
 _symmetry_equiv_pos_site_id
 _symmetry_equiv_pos_as_xyz
  1  'x, y, z'
loop_
 _atom_site_type_symbol
 _atom_site_label
 _atom_site_symmetry_multiplicity
 _atom_site_fract_x
 _atom_site_fract_y
 _atom_site_fract_z
 _atom_site_occupancy
  Cd  Cd0  1  0.00000000  0.00000000  0.00000000  1
  Cd  Cd1  1  0.50000000  0.50000000  0.50000000  1
  Br  Br2  1  0.20861979  0.20861979  0.20861979  1
  Br  Br3  1  0.79138021  0.79138021  0.79138021  1
  Br  Br4  1  0.62472864  0.62472864  0.62472864  1
  Br  Br5  1  0.37527136  0.37527136  0.37527136  1
