# generated using pymatgen
data_As2O3
_symmetry_space_group_name_H-M   'P 1'
_cell_length_a   8.09954694
_cell_length_b   4.57726134
_cell_length_c   10.76116426
_cell_angle_alpha   90.00000000
_cell_angle_beta   124.58789084
_cell_angle_gamma   90.00000000
_symmetry_Int_Tables_number   1
_chemical_formula_structural   As2O3
_chemical_formula_sum   'As8 O12'
_cell_volume   328.44359063
_cell_formula_units_Z   4
loop_
 _symmetry_equiv_pos_site_id
 _symmetry_equiv_pos_as_xyz
  1  'x, y, z'
loop_
 _atom_site_type_symbol
 _atom_site_label
 _atom_site_symmetry_multiplicity
 _atom_site_fract_x
 _atom_site_fract_y
 _atom_site_fract_z
 _atom_site_occupancy
  As  As0  1  0.55944252  0.79292435  0.87797963  1
  As  As1  1  0.44055748  0.29292435  0.62202037  1
  As  As2  1  0.44055748  0.20707565  0.12202037  1
  As  As3  1  0.55944252  0.70707565  0.37797963  1
  As  As4  1  0.91777721  0.33001288  0.80478398  1
  As  As5  1  0.08222279  0.83001288  0.69521602  1
  As  As6  1  0.08222279  0.66998712  0.19521602  1
  As  As7  1  0.91777721  0.16998712  0.30478398  1
  O  O8  1  0.04255057  0.05583051  0.21352841  1
  O  O9  1  0.95744943  0.55583051  0.28647159  1
  O  O10  1  0.40720869  0.85545426  0.18263963  1
  O  O11  1  0.59279131  0.35545426  0.31736037  1
  O  O12  1  0.59279131  0.14454574  0.81736037  1
  O  O13  1  0.66600148  0.36623363  0.62732015  1
  O  O14  1  0.33399852  0.63376637  0.37267985  1
  O  O15  1  0.66600148  0.13376637  0.12732015  1
  O  O16  1  0.04255057  0.44416949  0.71352841  1
  O  O17  1  0.33399852  0.86623363  0.87267985  1
  O  O18  1  0.40720869  0.64454574  0.68263963  1
  O  O19  1  0.95744943  0.94416949  0.78647159  1
