# generated using pymatgen
data_BiSBr
_symmetry_space_group_name_H-M   'P 1'
_cell_length_a   4.09333912
_cell_length_b   8.26774013
_cell_length_c   9.87950584
_cell_angle_alpha   90.00000000
_cell_angle_beta   90.00000000
_cell_angle_gamma   90.00000000
_symmetry_Int_Tables_number   1
_chemical_formula_structural   BiSBr
_chemical_formula_sum   'Bi4 S4 Br4'
_cell_volume   334.34879810
_cell_formula_units_Z   4
loop_
 _symmetry_equiv_pos_site_id
 _symmetry_equiv_pos_as_xyz
  1  'x, y, z'
loop_
 _atom_site_type_symbol
 _atom_site_label
 _atom_site_symmetry_multiplicity
 _atom_site_fract_x
 _atom_site_fract_y
 _atom_site_fract_z
 _atom_site_occupancy
  Bi  Bi0  1  0.75000000  0.36101582  0.63245121  1
  Bi  Bi1  1  0.25000000  0.63898418  0.36754879  1
  Bi  Bi2  1  0.75000000  0.86101582  0.86754879  1
  Bi  Bi3  1  0.25000000  0.13898418  0.13245121  1
  S  S4  1  0.25000000  0.33302775  0.44734123  1
  S  S5  1  0.75000000  0.16697225  0.94734123  1
  S  S6  1  0.25000000  0.83302775  0.05265877  1
  S  S7  1  0.75000000  0.66697225  0.55265877  1
  Br  Br8  1  0.75000000  0.48933150  0.17358732  1
  Br  Br9  1  0.25000000  0.01066850  0.67358732  1
  Br  Br10  1  0.75000000  0.98933150  0.32641268  1
  Br  Br11  1  0.25000000  0.51066850  0.82641268  1
