# generated using pymatgen
data_Ta2CS2
_symmetry_space_group_name_H-M   'P 1'
_cell_length_a   8.83340068
_cell_length_b   8.83340065
_cell_length_c   8.83340078
_cell_angle_alpha   21.50452306
_cell_angle_beta   21.50452105
_cell_angle_gamma   21.50452367
_symmetry_Int_Tables_number   1
_chemical_formula_structural   Ta2CS2
_chemical_formula_sum   'Ta2 C1 S2'
_cell_volume   81.15325878
_cell_formula_units_Z   1
loop_
 _symmetry_equiv_pos_site_id
 _symmetry_equiv_pos_as_xyz
  1  'x, y, z'
loop_
 _atom_site_type_symbol
 _atom_site_label
 _atom_site_symmetry_multiplicity
 _atom_site_fract_x
 _atom_site_fract_y
 _atom_site_fract_z
 _atom_site_occupancy
  Ta  Ta0  1  0.62075789  0.62075789  0.62075789  1
  Ta  Ta1  1  0.37924211  0.37924211  0.37924211  1
  C  C2  1  0.00000000  0.00000000  0.00000000  1
  S  S3  1  0.77513091  0.77513091  0.77513091  1
  S  S4  1  0.22486909  0.22486909  0.22486909  1
