# generated using pymatgen
data_PS
_symmetry_space_group_name_H-M   'P 1'
_cell_length_a   6.62900417
_cell_length_b   6.62900433
_cell_length_c   8.78175912
_cell_angle_alpha   80.36882334
_cell_angle_beta   80.36882524
_cell_angle_gamma   84.97812747
_symmetry_Int_Tables_number   1
_chemical_formula_structural   PS
_chemical_formula_sum   'P8 S8'
_cell_volume   374.39664805
_cell_formula_units_Z   8
loop_
 _symmetry_equiv_pos_site_id
 _symmetry_equiv_pos_as_xyz
  1  'x, y, z'
loop_
 _atom_site_type_symbol
 _atom_site_label
 _atom_site_symmetry_multiplicity
 _atom_site_fract_x
 _atom_site_fract_y
 _atom_site_fract_z
 _atom_site_occupancy
  P  P0  1  0.19794023  0.79383440  0.43648525  1
  P  P1  1  0.20616560  0.80205977  0.06351475  1
  P  P2  1  0.80205977  0.20616560  0.56351475  1
  P  P3  1  0.79383440  0.19794023  0.93648525  1
  P  P4  1  0.54739599  0.76198743  0.13027625  1
  P  P5  1  0.23801257  0.45260401  0.36972375  1
  P  P6  1  0.45260401  0.23801257  0.86972375  1
  P  P7  1  0.76198743  0.54739599  0.63027625  1
  S  S8  1  0.54720831  0.45279169  0.25000000  1
  S  S9  1  0.45279169  0.54720831  0.75000000  1
  S  S10  1  0.04813335  0.95186665  0.25000000  1
  S  S11  1  0.95186665  0.04813335  0.75000000  1
  S  S12  1  0.49455623  0.89857621  0.33723738  1
  S  S13  1  0.10142379  0.50544377  0.16276262  1
  S  S14  1  0.50544377  0.10142379  0.66276262  1
  S  S15  1  0.89857621  0.49455623  0.83723738  1
