# generated using pymatgen
data_YbCl3
_symmetry_space_group_name_H-M   'P 1'
_cell_length_a   4.19327009
_cell_length_b   5.23754129
_cell_length_c   8.73485666
_cell_angle_alpha   90.00000000
_cell_angle_beta   90.00000000
_cell_angle_gamma   113.59749847
_symmetry_Int_Tables_number   1
_chemical_formula_structural   YbCl3
_chemical_formula_sum   'Yb2 Cl6'
_cell_volume   175.79712949
_cell_formula_units_Z   2
loop_
 _symmetry_equiv_pos_site_id
 _symmetry_equiv_pos_as_xyz
  1  'x, y, z'
loop_
 _atom_site_type_symbol
 _atom_site_label
 _atom_site_symmetry_multiplicity
 _atom_site_fract_x
 _atom_site_fract_y
 _atom_site_fract_z
 _atom_site_occupancy
  Yb  Yb0  1  0.78206610  0.56413221  0.25000000  1
  Yb  Yb1  1  0.21793390  0.43586779  0.75000000  1
  Cl  Cl2  1  0.36532059  0.73064119  0.05067922  1
  Cl  Cl3  1  0.63467941  0.26935981  0.94932078  1
  Cl  Cl4  1  0.63467941  0.26935981  0.55067922  1
  Cl  Cl5  1  0.36532059  0.73064119  0.44932078  1
  Cl  Cl6  1  0.08897928  0.17795756  0.25000000  1
  Cl  Cl7  1  0.91102072  0.82204244  0.75000000  1
