# generated using pymatgen
data_ThTe3
_symmetry_space_group_name_H-M   'P 1'
_cell_length_a   4.41590684
_cell_length_b   6.24223548
_cell_length_c   10.54394900
_cell_angle_alpha   97.68919552
_cell_angle_beta   90.00000000
_cell_angle_gamma   90.00000000
_symmetry_Int_Tables_number   1
_chemical_formula_structural   ThTe3
_chemical_formula_sum   'Th2 Te6'
_cell_volume   288.03197623
_cell_formula_units_Z   2
loop_
 _symmetry_equiv_pos_site_id
 _symmetry_equiv_pos_as_xyz
  1  'x, y, z'
loop_
 _atom_site_type_symbol
 _atom_site_label
 _atom_site_symmetry_multiplicity
 _atom_site_fract_x
 _atom_site_fract_y
 _atom_site_fract_z
 _atom_site_occupancy
  Th  Th0  1  0.75000000  0.71476355  0.84024275  1
  Th  Th1  1  0.25000000  0.28523645  0.15975725  1
  Te  Te2  1  0.75000000  0.55770735  0.33148623  1
  Te  Te3  1  0.25000000  0.44229265  0.66851377  1
  Te  Te4  1  0.75000000  0.23509220  0.93640362  1
  Te  Te5  1  0.25000000  0.76490780  0.06359638  1
  Te  Te6  1  0.75000000  0.10994918  0.34377577  1
  Te  Te7  1  0.25000000  0.89005082  0.65622423  1
