# generated using pymatgen
data_K4HgAs2
_symmetry_space_group_name_H-M   'P 1'
_cell_length_a   9.89541635
_cell_length_b   9.89541613
_cell_length_c   9.89541668
_cell_angle_alpha   33.55870876
_cell_angle_beta   33.55870976
_cell_angle_gamma   33.55871129
_symmetry_Int_Tables_number   1
_chemical_formula_structural   K4HgAs2
_chemical_formula_sum   'K4 Hg1 As2'
_cell_volume   263.73534430
_cell_formula_units_Z   1
loop_
 _symmetry_equiv_pos_site_id
 _symmetry_equiv_pos_as_xyz
  1  'x, y, z'
loop_
 _atom_site_type_symbol
 _atom_site_label
 _atom_site_symmetry_multiplicity
 _atom_site_fract_x
 _atom_site_fract_y
 _atom_site_fract_z
 _atom_site_occupancy
  K  K0  1  0.20753972  0.20753972  0.20753972  1
  K  K1  1  0.79246028  0.79246028  0.79246028  1
  K  K2  1  0.38792063  0.38792063  0.38792063  1
  K  K3  1  0.61207937  0.61207937  0.61207937  1
  Hg  Hg4  1  0.00000000  0.00000000  0.00000000  1
  As  As5  1  0.90982292  0.90982292  0.90982292  1
  As  As6  1  0.09017708  0.09017708  0.09017708  1
