# generated using pymatgen
data_Bi2O3
_symmetry_space_group_name_H-M   'P 1'
_cell_length_a   5.93423958
_cell_length_b   8.13918064
_cell_length_c   7.46306347
_cell_angle_alpha   90.00000000
_cell_angle_beta   112.04969894
_cell_angle_gamma   90.00000000
_symmetry_Int_Tables_number   1
_chemical_formula_structural   Bi2O3
_chemical_formula_sum   'Bi8 O12'
_cell_volume   334.09991618
_cell_formula_units_Z   4
loop_
 _symmetry_equiv_pos_site_id
 _symmetry_equiv_pos_as_xyz
  1  'x, y, z'
loop_
 _atom_site_type_symbol
 _atom_site_label
 _atom_site_symmetry_multiplicity
 _atom_site_fract_x
 _atom_site_fract_y
 _atom_site_fract_z
 _atom_site_occupancy
  Bi  Bi0  1  0.03814527  0.54376076  0.27478634  1
  Bi  Bi1  1  0.96185473  0.04376076  0.22521366  1
  Bi  Bi2  1  0.96185473  0.45623924  0.72521366  1
  Bi  Bi3  1  0.03814527  0.95623924  0.77478634  1
  Bi  Bi4  1  0.52216976  0.68983875  0.86914463  1
  Bi  Bi5  1  0.47783024  0.18983875  0.63085537  1
  Bi  Bi6  1  0.47783024  0.31016125  0.13085537  1
  Bi  Bi7  1  0.52216976  0.81016125  0.36914463  1
  O  O8  1  0.22171510  0.20732856  0.79322700  1
  O  O9  1  0.77828490  0.70732856  0.70677300  1
  O  O10  1  0.23663398  0.94636753  0.12226588  1
  O  O11  1  0.76336602  0.44636753  0.37773412  1
  O  O12  1  0.76336602  0.05363247  0.87773412  1
  O  O13  1  0.72782057  0.03438918  0.48398138  1
  O  O14  1  0.27217943  0.96561082  0.51601862  1
  O  O15  1  0.72782057  0.46561082  0.98398138  1
  O  O16  1  0.22171510  0.29267144  0.29322700  1
  O  O17  1  0.27217943  0.53438918  0.01601862  1
  O  O18  1  0.23663398  0.55363247  0.62226588  1
  O  O19  1  0.77828490  0.79267144  0.20677300  1
