# generated using pymatgen
data_Mg3(HO2)2
_symmetry_space_group_name_H-M   'P 1'
_cell_length_a   3.05317832
_cell_length_b   3.05317832
_cell_length_c   19.43772550
_cell_angle_alpha   90.00000000
_cell_angle_beta   90.00000000
_cell_angle_gamma   119.99998187
_symmetry_Int_Tables_number   1
_chemical_formula_structural   Mg3(HO2)2
_chemical_formula_sum   'Mg6 H4 O8'
_cell_volume   156.92079328
_cell_formula_units_Z   2
loop_
 _symmetry_equiv_pos_site_id
 _symmetry_equiv_pos_as_xyz
  1  'x, y, z'
loop_
 _atom_site_type_symbol
 _atom_site_label
 _atom_site_symmetry_multiplicity
 _atom_site_fract_x
 _atom_site_fract_y
 _atom_site_fract_z
 _atom_site_occupancy
  Mg  Mg0  1  0.33333300  0.66666700  0.75275164  1
  Mg  Mg1  1  0.66666700  0.33333300  0.62738248  1
  Mg  Mg2  1  0.33333300  0.66666700  0.37261752  1
  Mg  Mg3  1  0.66666700  0.33333300  0.24724836  1
  Mg  Mg4  1  0.00000000  0.00000000  0.12188454  1
  Mg  Mg5  1  0.00000000  0.00000000  0.87811546  1
  H  H6  1  0.66666700  0.33333300  0.47736879  1
  H  H7  1  0.33333300  0.66666700  0.52263121  1
  H  H8  1  0.66666700  0.33333300  0.01703288  1
  H  H9  1  0.33333300  0.66666700  0.98296712  1
  O  O10  1  0.00000000  0.00000000  0.69022686  1
  O  O11  1  0.66666700  0.33333300  0.06707606  1
  O  O12  1  0.00000000  0.00000000  0.30977314  1
  O  O13  1  0.33333300  0.66666700  0.57257963  1
  O  O14  1  0.66666700  0.33333300  0.42742037  1
  O  O15  1  0.33333300  0.66666700  0.93292394  1
  O  O16  1  0.66666700  0.33333300  0.81528076  1
  O  O17  1  0.33333300  0.66666700  0.18471924  1
