# generated using pymatgen
data_Nb3GeTe6
_symmetry_space_group_name_H-M   'P 1'
_cell_length_a   6.54039043
_cell_length_b   11.70502760
_cell_length_c   14.22511455
_cell_angle_alpha   90.00000000
_cell_angle_beta   90.00000000
_cell_angle_gamma   90.00000000
_symmetry_Int_Tables_number   1
_chemical_formula_structural   Nb3GeTe6
_chemical_formula_sum   'Nb12 Ge4 Te24'
_cell_volume   1089.01005186
_cell_formula_units_Z   4
loop_
 _symmetry_equiv_pos_site_id
 _symmetry_equiv_pos_as_xyz
  1  'x, y, z'
loop_
 _atom_site_type_symbol
 _atom_site_label
 _atom_site_symmetry_multiplicity
 _atom_site_fract_x
 _atom_site_fract_y
 _atom_site_fract_z
 _atom_site_occupancy
  Nb  Nb0  1  0.69636240  0.96911483  0.25000000  1
  Nb  Nb1  1  0.19636240  0.53088517  0.25000000  1
  Nb  Nb2  1  0.80363760  0.46911483  0.75000000  1
  Nb  Nb3  1  0.30363760  0.03088517  0.75000000  1
  Nb  Nb4  1  0.96369512  0.31458439  0.25000000  1
  Nb  Nb5  1  0.46369512  0.18541561  0.25000000  1
  Nb  Nb6  1  0.53630488  0.81458439  0.75000000  1
  Nb  Nb7  1  0.03630488  0.68541561  0.75000000  1
  Nb  Nb8  1  0.82498398  0.16714155  0.75000000  1
  Nb  Nb9  1  0.32498398  0.33285845  0.75000000  1
  Nb  Nb10  1  0.67501602  0.66714155  0.25000000  1
  Nb  Nb11  1  0.17501602  0.83285845  0.25000000  1
  Ge  Ge12  1  0.07451478  0.07520676  0.25000000  1
  Ge  Ge13  1  0.57451478  0.42479324  0.25000000  1
  Ge  Ge14  1  0.42548522  0.57520676  0.75000000  1
  Ge  Ge15  1  0.92548522  0.92479324  0.75000000  1
  Te  Te16  1  0.13616253  0.49304820  0.62012206  1
  Te  Te17  1  0.63616253  0.00695180  0.87987794  1
  Te  Te18  1  0.63616253  0.00695180  0.62012206  1
  Te  Te19  1  0.13616253  0.49304820  0.87987794  1
  Te  Te20  1  0.86383747  0.50695180  0.37987794  1
  Te  Te21  1  0.36383747  0.99304820  0.12012206  1
  Te  Te22  1  0.78493017  0.16059074  0.38343020  1
  Te  Te23  1  0.28493017  0.33940926  0.11656980  1
  Te  Te24  1  0.71506983  0.66059074  0.61656980  1
  Te  Te25  1  0.21506983  0.83940926  0.88343020  1
  Te  Te26  1  0.21506983  0.83940926  0.61656980  1
  Te  Te27  1  0.14519446  0.18095870  0.61680937  1
  Te  Te28  1  0.28493017  0.33940926  0.38343020  1
  Te  Te29  1  0.78493017  0.16059074  0.11656980  1
  Te  Te30  1  0.85480554  0.81904130  0.38319063  1
  Te  Te31  1  0.35480554  0.68095870  0.11680937  1
  Te  Te32  1  0.64519446  0.31904130  0.61680937  1
  Te  Te33  1  0.14519446  0.18095870  0.88319063  1
  Te  Te34  1  0.86383747  0.50695180  0.12012206  1
  Te  Te35  1  0.64519446  0.31904130  0.88319063  1
  Te  Te36  1  0.35480554  0.68095870  0.38319063  1
  Te  Te37  1  0.85480554  0.81904130  0.11680937  1
  Te  Te38  1  0.71506983  0.66059074  0.88343020  1
  Te  Te39  1  0.36383747  0.99304820  0.37987794  1
