# generated using pymatgen
data_TeRhCl
_symmetry_space_group_name_H-M   'P 1'
_cell_length_a   3.71495366
_cell_length_b   6.71477097
_cell_length_c   6.78383486
_cell_angle_alpha   118.05821339
_cell_angle_beta   105.89107323
_cell_angle_gamma   89.99999633
_symmetry_Int_Tables_number   1
_chemical_formula_structural   TeRhCl
_chemical_formula_sum   'Te2 Rh2 Cl2'
_cell_volume   141.96423633
_cell_formula_units_Z   2
loop_
 _symmetry_equiv_pos_site_id
 _symmetry_equiv_pos_as_xyz
  1  'x, y, z'
loop_
 _atom_site_type_symbol
 _atom_site_label
 _atom_site_symmetry_multiplicity
 _atom_site_fract_x
 _atom_site_fract_y
 _atom_site_fract_z
 _atom_site_occupancy
  Te  Te0  1  0.86827718  0.53707337  0.73655536  1
  Te  Te1  1  0.13172282  0.46292663  0.26344464  1
  Rh  Rh2  1  0.25138420  0.24708006  0.50276840  1
  Rh  Rh3  1  0.74861580  0.75291994  0.49723160  1
  Cl  Cl4  1  0.36900621  0.03765281  0.73801241  1
  Cl  Cl5  1  0.63099379  0.96234719  0.26198759  1
