# generated using pymatgen
data_LiFeF4
_symmetry_space_group_name_H-M   'P 1'
_cell_length_a   4.85845398
_cell_length_b   4.85845398
_cell_length_c   6.52679979
_cell_angle_alpha   68.14909185
_cell_angle_beta   68.14909185
_cell_angle_gamma   90.00000000
_symmetry_Int_Tables_number   1
_chemical_formula_structural   LiFeF4
_chemical_formula_sum   'Li2 Fe2 F8'
_cell_volume   130.99332950
_cell_formula_units_Z   2
loop_
 _symmetry_equiv_pos_site_id
 _symmetry_equiv_pos_as_xyz
  1  'x, y, z'
loop_
 _atom_site_type_symbol
 _atom_site_label
 _atom_site_symmetry_multiplicity
 _atom_site_fract_x
 _atom_site_fract_y
 _atom_site_fract_z
 _atom_site_occupancy
  Li  Li0  1  0.37500000  0.12500000  0.75000000  1
  Li  Li1  1  0.62500000  0.87500000  0.25000000  1
  Fe  Fe2  1  0.12500000  0.37500000  0.25000000  1
  Fe  Fe3  1  0.87500000  0.62500000  0.75000000  1
  F  F4  1  0.45681270  0.21197556  0.10585390  1
  F  F5  1  0.18217054  0.95681270  0.60585390  1
  F  F6  1  0.71197556  0.43733340  0.60585390  1
  F  F7  1  0.93733340  0.68217054  0.10585390  1
  F  F8  1  0.06266660  0.31782946  0.89414610  1
  F  F9  1  0.28802444  0.56266660  0.39414610  1
  F  F10  1  0.81782946  0.04318730  0.39414610  1
  F  F11  1  0.54318730  0.78802444  0.89414610  1
