# generated using pymatgen
data_Bi2Te2S
_symmetry_space_group_name_H-M   'P 1'
_cell_length_a   10.43518000
_cell_length_b   10.43517996
_cell_length_c   10.43518036
_cell_angle_alpha   23.78473267
_cell_angle_beta   23.78473029
_cell_angle_gamma   23.78473236
_symmetry_Int_Tables_number   1
_chemical_formula_structural   Bi2Te2S
_chemical_formula_sum   'Bi2 Te2 S1'
_cell_volume   162.35996766
_cell_formula_units_Z   1
loop_
 _symmetry_equiv_pos_site_id
 _symmetry_equiv_pos_as_xyz
  1  'x, y, z'
loop_
 _atom_site_type_symbol
 _atom_site_label
 _atom_site_symmetry_multiplicity
 _atom_site_fract_x
 _atom_site_fract_y
 _atom_site_fract_z
 _atom_site_occupancy
  Bi  Bi0  1  0.39068816  0.39068816  0.39068816  1
  Bi  Bi1  1  0.60931184  0.60931184  0.60931184  1
  Te  Te2  1  0.78317040  0.78317040  0.78317040  1
  Te  Te3  1  0.21682960  0.21682960  0.21682960  1
  S  S4  1  0.00000000  0.00000000  0.00000000  1
