# generated using pymatgen
data_DyCl3
_symmetry_space_group_name_H-M   'P 1'
_cell_length_a   3.79716636
_cell_length_b   6.19528225
_cell_length_c   8.48138720
_cell_angle_alpha   90.00000000
_cell_angle_beta   90.00000000
_cell_angle_gamma   107.84579895
_symmetry_Int_Tables_number   1
_chemical_formula_structural   DyCl3
_chemical_formula_sum   'Dy2 Cl6'
_cell_volume   189.92055666
_cell_formula_units_Z   2
loop_
 _symmetry_equiv_pos_site_id
 _symmetry_equiv_pos_as_xyz
  1  'x, y, z'
loop_
 _atom_site_type_symbol
 _atom_site_label
 _atom_site_symmetry_multiplicity
 _atom_site_fract_x
 _atom_site_fract_y
 _atom_site_fract_z
 _atom_site_occupancy
  Dy  Dy0  1  0.24268017  0.48536035  0.75000000  1
  Dy  Dy1  1  0.75731983  0.51463965  0.25000000  1
  Cl  Cl2  1  0.58455099  0.16910198  0.75000000  1
  Cl  Cl3  1  0.41544901  0.83089802  0.25000000  1
  Cl  Cl4  1  0.14736967  0.29473934  0.43360143  1
  Cl  Cl5  1  0.85263033  0.70526066  0.56639857  1
  Cl  Cl6  1  0.85263033  0.70526066  0.93360143  1
  Cl  Cl7  1  0.14736967  0.29473934  0.06639857  1
