# generated using pymatgen
data_Pr2Br5
_symmetry_space_group_name_H-M   'P 1'
_cell_length_a   7.80627093
_cell_length_b   4.18908510
_cell_length_c   13.39823478
_cell_angle_alpha   90.00000000
_cell_angle_beta   88.55983732
_cell_angle_gamma   90.00000000
_symmetry_Int_Tables_number   1
_chemical_formula_structural   Pr2Br5
_chemical_formula_sum   'Pr4 Br10'
_cell_volume   437.99906085
_cell_formula_units_Z   2
loop_
 _symmetry_equiv_pos_site_id
 _symmetry_equiv_pos_as_xyz
  1  'x, y, z'
loop_
 _atom_site_type_symbol
 _atom_site_label
 _atom_site_symmetry_multiplicity
 _atom_site_fract_x
 _atom_site_fract_y
 _atom_site_fract_z
 _atom_site_occupancy
  Pr  Pr0  1  0.07261974  0.75000000  0.16075920  1
  Pr  Pr1  1  0.92738026  0.25000000  0.83924080  1
  Pr  Pr2  1  0.57327199  0.75000000  0.65858783  1
  Pr  Pr3  1  0.42672801  0.25000000  0.34141217  1
  Br  Br4  1  0.67298764  0.75000000  0.27020710  1
  Br  Br5  1  0.32701236  0.25000000  0.72979290  1
  Br  Br6  1  0.15386213  0.75000000  0.93146511  1
  Br  Br7  1  0.84613787  0.25000000  0.06853489  1
  Br  Br8  1  0.69491222  0.25000000  0.50977079  1
  Br  Br9  1  0.30508778  0.75000000  0.49022921  1
  Br  Br10  1  0.04477849  0.25000000  0.32381479  1
  Br  Br11  1  0.95522151  0.75000000  0.67618521  1
  Br  Br12  1  0.35105200  0.25000000  0.12037823  1
  Br  Br13  1  0.64894800  0.75000000  0.87962177  1
