# generated using pymatgen
data_HgCl2
_symmetry_space_group_name_H-M   'P 1'
_cell_length_a   4.32095001
_cell_length_b   6.02241382
_cell_length_c   12.67464155
_cell_angle_alpha   90.00000000
_cell_angle_beta   90.00000000
_cell_angle_gamma   90.00000000
_symmetry_Int_Tables_number   1
_chemical_formula_structural   HgCl2
_chemical_formula_sum   'Hg4 Cl8'
_cell_volume   329.82648144
_cell_formula_units_Z   4
loop_
 _symmetry_equiv_pos_site_id
 _symmetry_equiv_pos_as_xyz
  1  'x, y, z'
loop_
 _atom_site_type_symbol
 _atom_site_label
 _atom_site_symmetry_multiplicity
 _atom_site_fract_x
 _atom_site_fract_y
 _atom_site_fract_z
 _atom_site_occupancy
  Hg  Hg0  1  0.53328279  0.75000000  0.62596314  1
  Hg  Hg1  1  0.03328279  0.25000000  0.87403686  1
  Hg  Hg2  1  0.46671721  0.25000000  0.37403686  1
  Hg  Hg3  1  0.96671721  0.75000000  0.12596314  1
  Cl  Cl4  1  0.30000497  0.75000000  0.98176466  1
  Cl  Cl5  1  0.80000497  0.25000000  0.51823534  1
  Cl  Cl6  1  0.69999503  0.25000000  0.01823534  1
  Cl  Cl7  1  0.19999503  0.75000000  0.48176466  1
  Cl  Cl8  1  0.63563863  0.75000000  0.27090705  1
  Cl  Cl9  1  0.13563863  0.25000000  0.22909295  1
  Cl  Cl10  1  0.36436137  0.25000000  0.72909295  1
  Cl  Cl11  1  0.86436137  0.75000000  0.77090705  1
