# generated using pymatgen
data_Sr2FeSO3
_symmetry_space_group_name_H-M   'P 1'
_cell_length_a   3.97177371
_cell_length_b   3.97177371
_cell_length_c   13.47523588
_cell_angle_alpha   90.00000000
_cell_angle_beta   90.00000000
_cell_angle_gamma   90.00000000
_symmetry_Int_Tables_number   1
_chemical_formula_structural   Sr2FeSO3
_chemical_formula_sum   'Sr4 Fe2 S2 O6'
_cell_volume   212.57166239
_cell_formula_units_Z   2
loop_
 _symmetry_equiv_pos_site_id
 _symmetry_equiv_pos_as_xyz
  1  'x, y, z'
loop_
 _atom_site_type_symbol
 _atom_site_label
 _atom_site_symmetry_multiplicity
 _atom_site_fract_x
 _atom_site_fract_y
 _atom_site_fract_z
 _atom_site_occupancy
  Sr  Sr0  1  0.00000000  0.50000000  0.86060726  1
  Sr  Sr1  1  0.50000000  0.00000000  0.13939274  1
  Sr  Sr2  1  0.00000000  0.50000000  0.60039425  1
  Sr  Sr3  1  0.50000000  0.00000000  0.39960575  1
  Fe  Fe4  1  0.50000000  0.00000000  0.72480003  1
  Fe  Fe5  1  0.00000000  0.50000000  0.27519997  1
  S  S6  1  0.50000000  0.00000000  0.90517697  1
  S  S7  1  0.00000000  0.50000000  0.09482303  1
  O  O8  1  0.50000000  0.50000000  0.72726282  1
  O  O9  1  0.00000000  0.00000000  0.72726282  1
  O  O10  1  0.00000000  0.00000000  0.27273718  1
  O  O11  1  0.50000000  0.50000000  0.27273718  1
  O  O12  1  0.50000000  0.00000000  0.58354493  1
  O  O13  1  0.00000000  0.50000000  0.41645507  1
