# generated using pymatgen
data_HAuO2
_symmetry_space_group_name_H-M   'P 1'
_cell_length_a   3.09777713
_cell_length_b   3.69607564
_cell_length_c   4.50130947
_cell_angle_alpha   81.78971194
_cell_angle_beta   90.00000394
_cell_angle_gamma   114.77544652
_symmetry_Int_Tables_number   1
_chemical_formula_structural   HAuO2
_chemical_formula_sum   'H1 Au1 O2'
_cell_volume   46.21211844
_cell_formula_units_Z   1
loop_
 _symmetry_equiv_pos_site_id
 _symmetry_equiv_pos_as_xyz
  1  'x, y, z'
loop_
 _atom_site_type_symbol
 _atom_site_label
 _atom_site_symmetry_multiplicity
 _atom_site_fract_x
 _atom_site_fract_y
 _atom_site_fract_z
 _atom_site_occupancy
  H  H0  1  0.00000000  0.00000000  0.50000000  1
  Au  Au1  1  0.50000000  0.00000000  0.00000000  1
  O  O2  1  0.08486780  0.16973559  0.71893228  1
  O  O3  1  0.91513220  0.83026441  0.28106772  1
