# generated using pymatgen
data_SbN
_symmetry_space_group_name_H-M   'P 1'
_cell_length_a   3.31259979
_cell_length_b   4.00408431
_cell_length_c   5.87812329
_cell_angle_alpha   89.99663465
_cell_angle_beta   106.24863520
_cell_angle_gamma   90.00114574
_symmetry_Int_Tables_number   1
_chemical_formula_structural   SbN
_chemical_formula_sum   'Sb2 N2'
_cell_volume   74.85273536
_cell_formula_units_Z   2
loop_
 _symmetry_equiv_pos_site_id
 _symmetry_equiv_pos_as_xyz
  1  'x, y, z'
loop_
 _atom_site_type_symbol
 _atom_site_label
 _atom_site_symmetry_multiplicity
 _atom_site_fract_x
 _atom_site_fract_y
 _atom_site_fract_z
 _atom_site_occupancy
  Sb  Sb0  1  0.26408385  0.78510705  0.03337596  1
  Sb  Sb1  1  0.98056845  0.28507842  0.46927308  1
  N  N2  1  0.43841350  0.97810674  0.38436463  1
  N  N3  1  0.80623020  0.47812579  0.11828633  1
