# generated using pymatgen
data_NbCoTe2
_symmetry_space_group_name_H-M   'P 1'
_cell_length_a   6.36544151
_cell_length_b   7.82266110
_cell_length_c   8.35890814
_cell_angle_alpha   117.89960221
_cell_angle_beta   90.00000000
_cell_angle_gamma   90.00000000
_symmetry_Int_Tables_number   1
_chemical_formula_structural   NbCoTe2
_chemical_formula_sum   'Nb4 Co4 Te8'
_cell_volume   367.85046069
_cell_formula_units_Z   4
loop_
 _symmetry_equiv_pos_site_id
 _symmetry_equiv_pos_as_xyz
  1  'x, y, z'
loop_
 _atom_site_type_symbol
 _atom_site_label
 _atom_site_symmetry_multiplicity
 _atom_site_fract_x
 _atom_site_fract_y
 _atom_site_fract_z
 _atom_site_occupancy
  Nb  Nb0  1  0.50000000  0.70689653  0.00000000  1
  Nb  Nb1  1  0.00000000  0.79310347  -0.00000000  1
  Nb  Nb2  1  0.50000000  0.29310347  -0.00000000  1
  Nb  Nb3  1  0.00000000  0.20689653  0.00000000  1
  Co  Co4  1  0.64323874  0.94197547  0.88394995  1
  Co  Co5  1  0.14323874  0.55802453  0.11605005  1
  Co  Co6  1  0.35676126  0.05802453  0.11605005  1
  Co  Co7  1  0.85676126  0.44197547  0.88394995  1
  Te  Te8  1  0.75000000  0.08988038  0.67976077  1
  Te  Te9  1  0.25000000  0.41011962  0.32023923  1
  Te  Te10  1  0.25000000  0.91011962  0.32023923  1
  Te  Te11  1  0.75000000  0.58988038  0.67976077  1
  Te  Te12  1  0.74661774  0.11252451  0.22504902  1
  Te  Te13  1  0.24661774  0.38747549  0.77495098  1
  Te  Te14  1  0.25338226  0.88747549  0.77495098  1
  Te  Te15  1  0.75338226  0.61252451  0.22504902  1
