# generated using pymatgen
data_AlHO2
_symmetry_space_group_name_H-M   'P 1'
_cell_length_a   6.69071506
_cell_length_b   6.03132819
_cell_length_c   3.75124899
_cell_angle_alpha   90.00000000
_cell_angle_beta   90.00000000
_cell_angle_gamma   25.78751919
_symmetry_Int_Tables_number   1
_chemical_formula_structural   AlHO2
_chemical_formula_sum   'Al2 H2 O4'
_cell_volume   65.85451518
_cell_formula_units_Z   2
loop_
 _symmetry_equiv_pos_site_id
 _symmetry_equiv_pos_as_xyz
  1  'x, y, z'
loop_
 _atom_site_type_symbol
 _atom_site_label
 _atom_site_symmetry_multiplicity
 _atom_site_fract_x
 _atom_site_fract_y
 _atom_site_fract_z
 _atom_site_occupancy
  Al  Al0  1  0.74932543  0.61352432  0.25000000  1
  Al  Al1  1  0.25067457  0.38647568  0.75000000  1
  H  H2  1  0.24729051  0.75463611  0.25000000  1
  H  H3  1  0.75270949  0.24536389  0.75000000  1
  O  O4  1  0.25037147  0.32782439  0.25000000  1
  O  O5  1  0.74962853  0.67217561  0.75000000  1
  O  O6  1  0.24838597  -0.08503906  0.25000000  1
  O  O7  1  0.75161403  0.08503906  0.75000000  1
