# generated using pymatgen
data_TaSe2
_symmetry_space_group_name_H-M   'P 1'
_cell_length_a   3.48259691
_cell_length_b   3.46823165
_cell_length_c   6.82254836
_cell_angle_alpha   82.50514707
_cell_angle_beta   74.94222996
_cell_angle_gamma   59.86288841
_symmetry_Int_Tables_number   1
_chemical_formula_structural   TaSe2
_chemical_formula_sum   'Ta1 Se2'
_cell_volume   68.81974798
_cell_formula_units_Z   1
loop_
 _symmetry_equiv_pos_site_id
 _symmetry_equiv_pos_as_xyz
  1  'x, y, z'
loop_
 _atom_site_type_symbol
 _atom_site_label
 _atom_site_symmetry_multiplicity
 _atom_site_fract_x
 _atom_site_fract_y
 _atom_site_fract_z
 _atom_site_occupancy
  Ta  Ta0  1  0.08193800  0.83612401  -0.00000001  1
  Se  Se1  1  0.87739247  0.50393974  0.74530018  1
  Se  Se2  1  0.61866953  0.50393625  0.25469983  1
