# generated using pymatgen
data_NbS2
_symmetry_space_group_name_H-M   'P 1'
_cell_length_a   3.36436622
_cell_length_b   3.36437883
_cell_length_c   11.27780103
_cell_angle_alpha   85.72450039
_cell_angle_beta   81.42493781
_cell_angle_gamma   60.00012050
_symmetry_Int_Tables_number   1
_chemical_formula_structural   NbS2
_chemical_formula_sum   'Nb1 S2'
_cell_volume   109.31545999
_cell_formula_units_Z   1
loop_
 _symmetry_equiv_pos_site_id
 _symmetry_equiv_pos_as_xyz
  1  'x, y, z'
loop_
 _atom_site_type_symbol
 _atom_site_label
 _atom_site_symmetry_multiplicity
 _atom_site_fract_x
 _atom_site_fract_y
 _atom_site_fract_z
 _atom_site_occupancy
  Nb  Nb0  1  0.07757189  0.84485619  0.00000000  1
  S  S1  1  0.81454757  0.51152193  0.85933111  1
  S  S2  1  0.67393054  0.51152188  0.14066888  1
