# generated using pymatgen
data_CaTlCl3
_symmetry_space_group_name_H-M   'P 1'
_cell_length_a   4.06637480
_cell_length_b   10.34365543
_cell_length_c   6.98669467
_cell_angle_alpha   90.00000000
_cell_angle_beta   106.91707479
_cell_angle_gamma   90.00000000
_symmetry_Int_Tables_number   1
_chemical_formula_structural   CaTlCl3
_chemical_formula_sum   'Ca2 Tl2 Cl6'
_cell_volume   281.15201717
_cell_formula_units_Z   2
loop_
 _symmetry_equiv_pos_site_id
 _symmetry_equiv_pos_as_xyz
  1  'x, y, z'
loop_
 _atom_site_type_symbol
 _atom_site_label
 _atom_site_symmetry_multiplicity
 _atom_site_fract_x
 _atom_site_fract_y
 _atom_site_fract_z
 _atom_site_occupancy
  Ca  Ca0  1  0.00000000  0.50000000  0.00000000  1
  Ca  Ca1  1  0.00000000  0.00000000  0.00000000  1
  Tl  Tl2  1  0.74333674  0.25000000  0.48665025  1
  Tl  Tl3  1  0.25666326  0.75000000  0.51334975  1
  Cl  Cl4  1  0.63378067  0.54661279  0.26759180  1
  Cl  Cl5  1  0.36621933  0.04661279  0.73240820  1
  Cl  Cl6  1  0.63378067  0.95338721  0.26759180  1
  Cl  Cl7  1  0.36621933  0.45338721  0.73240820  1
  Cl  Cl8  1  0.06165000  0.25000000  0.12328813  1
  Cl  Cl9  1  0.93835000  0.75000000  0.87671187  1
