# generated using pymatgen
data_SbI3
_symmetry_space_group_name_H-M   'P 1'
_cell_length_a   8.13709146
_cell_length_b   8.13709158
_cell_length_c   8.13709127
_cell_angle_alpha   54.61934215
_cell_angle_beta   54.61934067
_cell_angle_gamma   54.61933779
_symmetry_Int_Tables_number   1
_chemical_formula_structural   SbI3
_chemical_formula_sum   'Sb2 I6'
_cell_volume   333.20417069
_cell_formula_units_Z   2
loop_
 _symmetry_equiv_pos_site_id
 _symmetry_equiv_pos_as_xyz
  1  'x, y, z'
loop_
 _atom_site_type_symbol
 _atom_site_label
 _atom_site_symmetry_multiplicity
 _atom_site_fract_x
 _atom_site_fract_y
 _atom_site_fract_z
 _atom_site_occupancy
  Sb  Sb0  1  0.16747710  0.16747710  0.16747710  1
  Sb  Sb1  1  0.83252290  0.83252290  0.83252290  1
  I  I2  1  0.41622877  0.07720970  0.74744436  1
  I  I3  1  0.74744436  0.41622877  0.07720970  1
  I  I4  1  0.07720970  0.74744436  0.41622877  1
  I  I5  1  0.58377123  0.92279030  0.25255564  1
  I  I6  1  0.25255564  0.58377123  0.92279030  1
  I  I7  1  0.92279030  0.25255564  0.58377123  1
