# generated using pymatgen
data_HfNCl
_symmetry_space_group_name_H-M   'P 1'
_cell_length_a   9.46290239
_cell_length_b   9.46290282
_cell_length_c   9.46290250
_cell_angle_alpha   21.80546691
_cell_angle_beta   21.80545940
_cell_angle_gamma   21.80546129
_symmetry_Int_Tables_number   1
_chemical_formula_structural   HfNCl
_chemical_formula_sum   'Hf2 N2 Cl2'
_cell_volume   102.47732891
_cell_formula_units_Z   2
loop_
 _symmetry_equiv_pos_site_id
 _symmetry_equiv_pos_as_xyz
  1  'x, y, z'
loop_
 _atom_site_type_symbol
 _atom_site_label
 _atom_site_symmetry_multiplicity
 _atom_site_fract_x
 _atom_site_fract_y
 _atom_site_fract_z
 _atom_site_occupancy
  Hf  Hf0  1  0.11950512  0.11950512  0.11950512  1
  Hf  Hf1  1  0.88049488  0.88049488  0.88049488  1
  N  N2  1  0.19762344  0.19762344  0.19762344  1
  N  N3  1  0.80237656  0.80237656  0.80237656  1
  Cl  Cl4  1  0.38760743  0.38760743  0.38760743  1
  Cl  Cl5  1  0.61239257  0.61239257  0.61239257  1
