# generated using pymatgen
data_BiI3
_symmetry_space_group_name_H-M   'P 1'
_cell_length_a   8.21556786
_cell_length_b   8.21556821
_cell_length_c   8.21556785
_cell_angle_alpha   55.04135310
_cell_angle_beta   55.04135304
_cell_angle_gamma   55.04135373
_symmetry_Int_Tables_number   1
_chemical_formula_structural   BiI3
_chemical_formula_sum   'Bi2 I6'
_cell_volume   346.87075227
_cell_formula_units_Z   2
loop_
 _symmetry_equiv_pos_site_id
 _symmetry_equiv_pos_as_xyz
  1  'x, y, z'
loop_
 _atom_site_type_symbol
 _atom_site_label
 _atom_site_symmetry_multiplicity
 _atom_site_fract_x
 _atom_site_fract_y
 _atom_site_fract_z
 _atom_site_occupancy
  Bi  Bi0  1  0.66656210  0.66656210  0.66656210  1
  Bi  Bi1  1  0.33343790  0.33343790  0.33343790  1
  I  I2  1  0.91470515  0.24511707  0.57866653  1
  I  I3  1  0.24511707  0.57866653  0.91470515  1
  I  I4  1  0.42133347  0.08529485  0.75488293  1
  I  I5  1  0.75488293  0.42133347  0.08529485  1
  I  I6  1  0.08529485  0.75488293  0.42133347  1
  I  I7  1  0.57866653  0.91470515  0.24511707  1
