# generated using pymatgen
data_SiS2
_symmetry_space_group_name_H-M   'P 1'
_cell_length_a   5.59409203
_cell_length_b   5.47108435
_cell_length_c   6.19091301
_cell_angle_alpha   116.22287498
_cell_angle_beta   116.85913899
_cell_angle_gamma   90.00000304
_symmetry_Int_Tables_number   1
_chemical_formula_structural   SiS2
_chemical_formula_sum   'Si2 S4'
_cell_volume   146.84620831
_cell_formula_units_Z   2
loop_
 _symmetry_equiv_pos_site_id
 _symmetry_equiv_pos_as_xyz
  1  'x, y, z'
loop_
 _atom_site_type_symbol
 _atom_site_label
 _atom_site_symmetry_multiplicity
 _atom_site_fract_x
 _atom_site_fract_y
 _atom_site_fract_z
 _atom_site_occupancy
  Si  Si0  1  0.75000000  -0.00000000  -0.00000000  1
  Si  Si1  1  0.25000000  -0.00000000  -0.00000000  1
  S  S2  1  0.88144967  0.66705193  0.76290034  1
  S  S3  1  0.11855033  0.33294807  0.23709966  1
  S  S4  1  0.61855033  0.90415159  0.23709966  1
  S  S5  1  0.38144967  0.09584841  0.76290034  1
