# generated using pymatgen
data_Bi2PbSe4
_symmetry_space_group_name_H-M   'P 1'
_cell_length_a   13.52815927
_cell_length_b   13.52815948
_cell_length_c   13.52815938
_cell_angle_alpha   18.03674696
_cell_angle_beta   18.03674482
_cell_angle_gamma   18.03674485
_symmetry_Int_Tables_number   1
_chemical_formula_structural   Bi2PbSe4
_chemical_formula_sum   'Bi2 Pb1 Se4'
_cell_volume   207.25031934
_cell_formula_units_Z   1
loop_
 _symmetry_equiv_pos_site_id
 _symmetry_equiv_pos_as_xyz
  1  'x, y, z'
loop_
 _atom_site_type_symbol
 _atom_site_label
 _atom_site_symmetry_multiplicity
 _atom_site_fract_x
 _atom_site_fract_y
 _atom_site_fract_z
 _atom_site_occupancy
  Bi  Bi0  1  0.42820504  0.42820504  0.42820504  1
  Bi  Bi1  1  0.57179496  0.57179496  0.57179496  1
  Pb  Pb2  1  0.00000000  0.00000000  0.00000000  1
  Se  Se3  1  0.13339398  0.13339398  0.13339398  1
  Se  Se4  1  0.28685277  0.28685277  0.28685277  1
  Se  Se5  1  0.71314723  0.71314723  0.71314723  1
  Se  Se6  1  0.86660602  0.86660602  0.86660602  1
