# generated using pymatgen
data_SiAs
_symmetry_space_group_name_H-M   'P 1'
_cell_length_a   3.72350490
_cell_length_b   8.29663246
_cell_length_c   9.64520600
_cell_angle_alpha   105.22963178
_cell_angle_beta   90.00000042
_cell_angle_gamma   102.96751748
_symmetry_Int_Tables_number   1
_chemical_formula_structural   SiAs
_chemical_formula_sum   'Si6 As6'
_cell_volume   279.61761728
_cell_formula_units_Z   6
loop_
 _symmetry_equiv_pos_site_id
 _symmetry_equiv_pos_as_xyz
  1  'x, y, z'
loop_
 _atom_site_type_symbol
 _atom_site_label
 _atom_site_symmetry_multiplicity
 _atom_site_fract_x
 _atom_site_fract_y
 _atom_site_fract_z
 _atom_site_occupancy
  Si  Si0  1  0.13099679  0.26199258  0.41611904  1
  Si  Si1  1  0.86900321  0.73800742  0.58388096  1
  Si  Si2  1  0.23824539  0.47648978  0.29205411  1
  Si  Si3  1  0.76175461  0.52351022  0.70794589  1
  Si  Si4  1  0.56657459  0.13314918  0.08925945  1
  Si  Si5  1  0.43342541  0.86685082  0.91074055  1
  As  As6  1  0.15258545  0.30516989  0.04509177  1
  As  As7  1  0.84741455  0.69483011  0.95490823  1
  As  As8  1  0.16316930  0.32633860  0.67528474  1
  As  As9  1  0.83683070  0.67366140  0.32471526  1
  As  As10  1  0.53630717  0.07261434  0.32444756  1
  As  As11  1  0.46369283  0.92738566  0.67555244  1
