# generated using pymatgen
data_Nb(SeBr)2
_symmetry_space_group_name_H-M   'P 1'
_cell_length_a   6.71625409
_cell_length_b   6.79000244
_cell_length_c   7.43107875
_cell_angle_alpha   67.65039531
_cell_angle_beta   67.88103495
_cell_angle_gamma   60.38049018
_symmetry_Int_Tables_number   1
_chemical_formula_structural   Nb(SeBr)2
_chemical_formula_sum   'Nb2 Se4 Br4'
_cell_volume   264.86779754
_cell_formula_units_Z   2
loop_
 _symmetry_equiv_pos_site_id
 _symmetry_equiv_pos_as_xyz
  1  'x, y, z'
loop_
 _atom_site_type_symbol
 _atom_site_label
 _atom_site_symmetry_multiplicity
 _atom_site_fract_x
 _atom_site_fract_y
 _atom_site_fract_z
 _atom_site_occupancy
  Nb  Nb0  1  0.87527013  0.25196653  0.99950124  1
  Nb  Nb1  1  0.12472987  0.74803347  0.00049876  1
  Se  Se2  1  0.74114781  0.03907110  0.86381496  1
  Se  Se3  1  0.25885219  0.96092890  0.13618504  1
  Se  Se4  1  0.08136389  0.09207360  0.66982006  1
  Se  Se5  1  0.91863611  0.90792640  0.33017994  1
  Br  Br6  1  0.58270690  0.64953371  0.76924003  1
  Br  Br7  1  0.41729310  0.35046629  0.23075997  1
  Br  Br8  1  0.82839967  0.52172091  0.22996361  1
  Br  Br9  1  0.17160033  0.47827909  0.77003639  1
