# generated using pymatgen
data_VO2
_symmetry_space_group_name_H-M   'P 1'
_cell_length_a   2.91352404
_cell_length_b   2.90352240
_cell_length_c   9.62976798
_cell_angle_alpha   73.06577229
_cell_angle_beta   107.06092395
_cell_angle_gamma   119.91139060
_symmetry_Int_Tables_number   1
_chemical_formula_structural   VO2
_chemical_formula_sum   'V2 O4'
_cell_volume   66.46331962
_cell_formula_units_Z   2
loop_
 _symmetry_equiv_pos_site_id
 _symmetry_equiv_pos_as_xyz
  1  'x, y, z'
loop_
 _atom_site_type_symbol
 _atom_site_label
 _atom_site_symmetry_multiplicity
 _atom_site_fract_x
 _atom_site_fract_y
 _atom_site_fract_z
 _atom_site_occupancy
  V  V0  1  0.03117706  0.01263882  0.50193663  1
  V  V1  1  -0.03529099  -0.01674826  0.00195789  1
  O  O2  1  0.59448161  0.40467488  0.39352036  1
  O  O3  1  0.73632469  0.26448933  0.11089230  1
  O  O4  1  0.40084155  0.59695708  0.61073357  1
  O  O5  1  0.25914108  0.73642715  0.89341825  1
