# generated using pymatgen
data_Ag2SeO4
_symmetry_space_group_name_H-M   'P 1'
_cell_length_a   6.29196208
_cell_length_b   6.29196222
_cell_length_c   7.05157366
_cell_angle_alpha   101.36379114
_cell_angle_beta   101.36379588
_cell_angle_gamma   123.94166836
_symmetry_Int_Tables_number   1
_chemical_formula_structural   Ag2SeO4
_chemical_formula_sum   'Ag4 Se2 O8'
_cell_volume   210.25357419
_cell_formula_units_Z   2
loop_
 _symmetry_equiv_pos_site_id
 _symmetry_equiv_pos_as_xyz
  1  'x, y, z'
loop_
 _atom_site_type_symbol
 _atom_site_label
 _atom_site_symmetry_multiplicity
 _atom_site_fract_x
 _atom_site_fract_y
 _atom_site_fract_z
 _atom_site_occupancy
  Ag  Ag0  1  0.18134914  0.81865086  0.25000000  1
  Ag  Ag1  1  0.56865086  0.43134914  0.25000000  1
  Ag  Ag2  1  0.81865086  0.18134914  0.75000000  1
  Ag  Ag3  1  0.43134914  0.56865086  0.75000000  1
  Se  Se4  1  0.87500000  0.12500000  0.25000000  1
  Se  Se5  1  0.12500000  0.87500000  0.75000000  1
  O  O6  1  0.86767699  0.29963899  0.09854946  1
  O  O7  1  0.20108952  0.26912852  0.40145054  1
  O  O8  1  0.70036101  0.13232301  0.40145054  1
  O  O9  1  0.73087148  0.79891048  0.09854946  1
  O  O10  1  0.13232301  0.70036101  0.90145054  1
  O  O11  1  0.79891048  0.73087148  0.59854946  1
  O  O12  1  0.26912852  0.20108952  0.90145054  1
  O  O13  1  0.29963899  0.86767699  0.59854946  1
