# generated using pymatgen
data_AsBr3
_symmetry_space_group_name_H-M   'P 1'
_cell_length_a   4.12297624
_cell_length_b   10.21431460
_cell_length_c   12.21057695
_cell_angle_alpha   90.00000000
_cell_angle_beta   90.00000000
_cell_angle_gamma   90.00000000
_symmetry_Int_Tables_number   1
_chemical_formula_structural   AsBr3
_chemical_formula_sum   'As4 Br12'
_cell_volume   514.22862374
_cell_formula_units_Z   4
loop_
 _symmetry_equiv_pos_site_id
 _symmetry_equiv_pos_as_xyz
  1  'x, y, z'
loop_
 _atom_site_type_symbol
 _atom_site_label
 _atom_site_symmetry_multiplicity
 _atom_site_fract_x
 _atom_site_fract_y
 _atom_site_fract_z
 _atom_site_occupancy
  As  As0  1  0.49104889  0.30371761  0.28871066  1
  As  As1  1  -0.00895111  0.19628239  0.71128934  1
  As  As2  1  0.50895111  0.80371761  0.21128934  1
  As  As3  1  0.00895111  0.69628239  0.78871066  1
  Br  Br4  1  0.77985259  0.13558385  0.38441487  1
  Br  Br5  1  0.27985259  0.36441615  0.61558513  1
  Br  Br6  1  0.22014741  0.63558385  0.11558513  1
  Br  Br7  1  0.72014741  0.86441615  0.88441487  1
  Br  Br8  1  0.75849177  0.48808425  0.36866188  1
  Br  Br9  1  0.25849177  0.01191575  0.63133812  1
  Br  Br10  1  0.24150823  0.98808425  0.13133812  1
  Br  Br11  1  0.74150823  0.51191575  0.86866188  1
  Br  Br12  1  0.78224992  0.30058881  0.11807331  1
  Br  Br13  1  0.28224992  0.19941119  0.88192669  1
  Br  Br14  1  0.21775008  0.80058881  0.38192669  1
  Br  Br15  1  0.71775008  0.69941119  0.61807331  1
