# generated using pymatgen
data_TaSe2
_symmetry_space_group_name_H-M   'P 1'
_cell_length_a   12.88802817
_cell_length_b   12.88802832
_cell_length_c   12.88802804
_cell_angle_alpha   15.56247497
_cell_angle_beta   15.56247042
_cell_angle_gamma   15.56247357
_symmetry_Int_Tables_number   1
_chemical_formula_structural   TaSe2
_chemical_formula_sum   'Ta2 Se4'
_cell_volume   134.26323933
_cell_formula_units_Z   2
loop_
 _symmetry_equiv_pos_site_id
 _symmetry_equiv_pos_as_xyz
  1  'x, y, z'
loop_
 _atom_site_type_symbol
 _atom_site_label
 _atom_site_symmetry_multiplicity
 _atom_site_fract_x
 _atom_site_fract_y
 _atom_site_fract_z
 _atom_site_occupancy
  Ta  Ta0  1  0.91698893  0.91698893  0.91698893  1
  Ta  Ta1  1  0.08293900  0.08293900  0.08293900  1
  Se  Se2  1  0.62705245  0.62705245  0.62705245  1
  Se  Se3  1  0.46007189  0.46007189  0.46007189  1
  Se  Se4  1  0.20686541  0.20686541  0.20686541  1
  Se  Se5  1  0.37268233  0.37268233  0.37268233  1
