# generated using pymatgen
data_SbBr3
_symmetry_space_group_name_H-M   'P 1'
_cell_length_a   4.22503089
_cell_length_b   9.95951881
_cell_length_c   12.58274778
_cell_angle_alpha   90.00000000
_cell_angle_beta   90.00000000
_cell_angle_gamma   90.00000000
_symmetry_Int_Tables_number   1
_chemical_formula_structural   SbBr3
_chemical_formula_sum   'Sb4 Br12'
_cell_volume   529.47289920
_cell_formula_units_Z   4
loop_
 _symmetry_equiv_pos_site_id
 _symmetry_equiv_pos_as_xyz
  1  'x, y, z'
loop_
 _atom_site_type_symbol
 _atom_site_label
 _atom_site_symmetry_multiplicity
 _atom_site_fract_x
 _atom_site_fract_y
 _atom_site_fract_z
 _atom_site_occupancy
  Sb  Sb0  1  0.20604012  0.49994745  0.98143146  1
  Sb  Sb1  1  0.70604012  0.00005255  0.01856854  1
  Sb  Sb2  1  0.79395988  -0.00005255  0.51856854  1
  Sb  Sb3  1  0.29395988  0.50005255  0.48143146  1
  Br  Br4  1  0.53810685  0.31763682  0.88410481  1
  Br  Br5  1  0.03810685  0.18236318  0.11589519  1
  Br  Br6  1  0.46189315  0.81763682  0.61589519  1
  Br  Br7  1  0.96189315  0.68236318  0.38410481  1
  Br  Br8  1  0.96801453  0.49996682  0.65474177  1
  Br  Br9  1  0.46801453  0.00003318  0.34525823  1
  Br  Br10  1  0.03198547  -0.00003318  0.84525823  1
  Br  Br11  1  0.53198547  0.50003318  0.15474177  1
  Br  Br12  1  0.96201802  0.31772934  0.38409064  1
  Br  Br13  1  0.46201802  0.18227066  0.61590936  1
  Br  Br14  1  0.03798198  0.81772934  0.11590936  1
  Br  Br15  1  0.53798198  0.68227066  0.88409064  1
