# generated using pymatgen
data_ZrIN
_symmetry_space_group_name_H-M   'P 1'
_cell_length_a   10.78612166
_cell_length_b   10.78612169
_cell_length_c   10.78612246
_cell_angle_alpha   19.97325599
_cell_angle_beta   19.97325837
_cell_angle_gamma   19.97325598
_symmetry_Int_Tables_number   1
_chemical_formula_structural   ZrIN
_chemical_formula_sum   'Zr2 I2 N2'
_cell_volume   128.08255146
_cell_formula_units_Z   2
loop_
 _symmetry_equiv_pos_site_id
 _symmetry_equiv_pos_as_xyz
  1  'x, y, z'
loop_
 _atom_site_type_symbol
 _atom_site_label
 _atom_site_symmetry_multiplicity
 _atom_site_fract_x
 _atom_site_fract_y
 _atom_site_fract_z
 _atom_site_occupancy
  Zr  Zr0  1  0.79291708  0.79291708  0.79291708  1
  Zr  Zr1  1  0.20708292  0.20708292  0.20708292  1
  I  I2  1  0.38984637  0.38984637  0.38984637  1
  I  I3  1  0.61015363  0.61015363  0.61015363  1
  N  N4  1  0.13897833  0.13897833  0.13897833  1
  N  N5  1  0.86102167  0.86102167  0.86102167  1
