# generated using pymatgen
data_SN
_symmetry_space_group_name_H-M   'P 1'
_cell_length_a   4.01918638
_cell_length_b   4.48865664
_cell_length_c   7.72335047
_cell_angle_alpha   90.00000000
_cell_angle_beta   108.88480469
_cell_angle_gamma   90.00000000
_symmetry_Int_Tables_number   1
_chemical_formula_structural   SN
_chemical_formula_sum   'S4 N4'
_cell_volume   131.83478420
_cell_formula_units_Z   4
loop_
 _symmetry_equiv_pos_site_id
 _symmetry_equiv_pos_as_xyz
  1  'x, y, z'
loop_
 _atom_site_type_symbol
 _atom_site_label
 _atom_site_symmetry_multiplicity
 _atom_site_fract_x
 _atom_site_fract_y
 _atom_site_fract_z
 _atom_site_occupancy
  S  S0  1  0.17981550  0.28448310  0.84611540  1
  S  S1  1  0.82018450  0.78448310  0.65388460  1
  S  S2  1  0.82018450  0.71551690  0.15388460  1
  S  S3  1  0.17981550  0.21551690  0.34611540  1
  N  N4  1  0.13376691  0.93251809  0.81993826  1
  N  N5  1  0.86623309  0.43251809  0.68006174  1
  N  N6  1  0.86623309  0.06748191  0.18006174  1
  N  N7  1  0.13376691  0.56748191  0.31993826  1
