# generated using pymatgen
data_SrThBr6
_symmetry_space_group_name_H-M   'P 1'
_cell_length_a   4.40742186
_cell_length_b   9.24777286
_cell_length_c   11.78818280
_cell_angle_alpha   90.00000000
_cell_angle_beta   90.00000000
_cell_angle_gamma   90.00000000
_symmetry_Int_Tables_number   1
_chemical_formula_structural   SrThBr6
_chemical_formula_sum   'Sr2 Th2 Br12'
_cell_volume   480.47261243
_cell_formula_units_Z   2
loop_
 _symmetry_equiv_pos_site_id
 _symmetry_equiv_pos_as_xyz
  1  'x, y, z'
loop_
 _atom_site_type_symbol
 _atom_site_label
 _atom_site_symmetry_multiplicity
 _atom_site_fract_x
 _atom_site_fract_y
 _atom_site_fract_z
 _atom_site_occupancy
  Sr  Sr0  1  0.50000000  0.75000000  0.73812487  1
  Sr  Sr1  1  0.50000000  0.25000000  0.26187513  1
  Th  Th2  1  0.00000000  0.75000000  0.26588540  1
  Th  Th3  1  0.00000000  0.25000000  0.73411460  1
  Br  Br4  1  0.50000000  0.56702174  0.36391276  1
  Br  Br5  1  0.50000000  0.43297826  0.63608724  1
  Br  Br6  1  0.50000000  0.06702174  0.63608724  1
  Br  Br7  1  0.50000000  0.93297826  0.36391276  1
  Br  Br8  1  0.50000000  0.75000000  0.09131673  1
  Br  Br9  1  0.50000000  0.25000000  0.90868327  1
  Br  Br10  1  0.00000000  0.75000000  0.54799247  1
  Br  Br11  1  0.00000000  0.25000000  0.45200753  1
  Br  Br12  1  0.00000000  0.54904979  0.84838082  1
  Br  Br13  1  0.00000000  0.45095021  0.15161918  1
  Br  Br14  1  0.00000000  0.04904979  0.15161918  1
  Br  Br15  1  0.00000000  0.95095021  0.84838082  1
