# generated using pymatgen
data_Al2Te5
_symmetry_space_group_name_H-M   'P 1'
_cell_length_a   4.21252851
_cell_length_b   7.17968366
_cell_length_c   8.33353241
_cell_angle_alpha   79.63252213
_cell_angle_beta   75.35995071
_cell_angle_gamma   72.94051374
_symmetry_Int_Tables_number   1
_chemical_formula_structural   Al2Te5
_chemical_formula_sum   'Al2 Te5'
_cell_volume   231.60109074
_cell_formula_units_Z   1
loop_
 _symmetry_equiv_pos_site_id
 _symmetry_equiv_pos_as_xyz
  1  'x, y, z'
loop_
 _atom_site_type_symbol
 _atom_site_label
 _atom_site_symmetry_multiplicity
 _atom_site_fract_x
 _atom_site_fract_y
 _atom_site_fract_z
 _atom_site_occupancy
  Al  Al0  1  0.37432381  0.84930500  0.40204837  1
  Al  Al1  1  0.62567619  0.15069500  0.59795163  1
  Te  Te2  1  0.59119332  0.69469207  0.12292128  1
  Te  Te3  1  0.40880668  0.30530793  0.87707872  1
  Te  Te4  1  0.00000000  0.00000000  0.00000000  1
  Te  Te5  1  0.18188947  0.24403559  0.39218546  1
  Te  Te6  1  0.81811053  0.75596441  0.60781454  1
