# generated using pymatgen
data_AgBiO2
_symmetry_space_group_name_H-M   'P 1'
_cell_length_a   3.59366347
_cell_length_b   6.56183298
_cell_length_c   6.62081987
_cell_angle_alpha   97.97212244
_cell_angle_beta   89.99999738
_cell_angle_gamma   105.89235403
_symmetry_Int_Tables_number   1
_chemical_formula_structural   AgBiO2
_chemical_formula_sum   'Ag2 Bi2 O4'
_cell_volume   148.58878993
_cell_formula_units_Z   2
loop_
 _symmetry_equiv_pos_site_id
 _symmetry_equiv_pos_as_xyz
  1  'x, y, z'
loop_
 _atom_site_type_symbol
 _atom_site_label
 _atom_site_symmetry_multiplicity
 _atom_site_fract_x
 _atom_site_fract_y
 _atom_site_fract_z
 _atom_site_occupancy
  Ag  Ag0  1  0.00000000  0.00000000  0.00000000  1
  Ag  Ag1  1  0.50000000  0.00000000  0.50000000  1
  Bi  Bi2  1  0.24147050  0.48294099  0.74111945  1
  Bi  Bi3  1  0.75852950  0.51705901  0.25888055  1
  O  O4  1  0.66309915  0.32619830  0.51435639  1
  O  O5  1  0.33690085  0.67380170  0.48564361  1
  O  O6  1  0.16181476  0.32362952  0.11102308  1
  O  O7  1  0.83818524  0.67637048  0.88897692  1
