# generated using pymatgen
data_HS7N
_symmetry_space_group_name_H-M   'P 1'
_cell_length_a   7.61445797
_cell_length_b   7.78671688
_cell_length_c   13.16540122
_cell_angle_alpha   90.00000000
_cell_angle_beta   90.00000000
_cell_angle_gamma   90.00000000
_symmetry_Int_Tables_number   1
_chemical_formula_structural   HS7N
_chemical_formula_sum   'H4 S28 N4'
_cell_volume   780.59807643
_cell_formula_units_Z   4
loop_
 _symmetry_equiv_pos_site_id
 _symmetry_equiv_pos_as_xyz
  1  'x, y, z'
loop_
 _atom_site_type_symbol
 _atom_site_label
 _atom_site_symmetry_multiplicity
 _atom_site_fract_x
 _atom_site_fract_y
 _atom_site_fract_z
 _atom_site_occupancy
  H  H0  1  0.19475130  0.89417845  0.75000000  1
  H  H1  1  0.69475030  0.60582155  0.25000000  1
  H  H2  1  0.30524970  0.39417845  0.75000000  1
  H  H3  1  0.80524970  0.10582155  0.25000000  1
  S  S4  1  0.50944344  0.27638944  0.42013474  1
  S  S5  1  0.00944344  0.22361056  0.57986526  1
  S  S6  1  0.99055656  0.77638944  0.07986526  1
  S  S7  1  0.49055656  0.72361056  0.92013474  1
  S  S8  1  0.66521991  0.53022842  0.62296594  1
  S  S9  1  0.16521991  0.96977158  0.37703406  1
  S  S10  1  0.33478009  0.46977158  0.12296594  1
  S  S11  1  0.50944344  0.27638944  0.07986526  1
  S  S12  1  0.33478009  0.46977158  0.37703406  1
  S  S13  1  0.83478009  0.03022842  0.62296594  1
  S  S14  1  0.16521991  0.96977158  0.12296594  1
  S  S15  1  0.66521991  0.53022842  0.87703406  1
  S  S16  1  0.83478009  0.03022842  0.87703406  1
  S  S17  1  0.00944344  0.22361056  0.92013474  1
  S  S18  1  0.99055656  0.77638944  0.42013474  1
  S  S19  1  0.49055656  0.72361056  0.57986526  1
  S  S20  1  0.79912683  0.61630516  0.75000000  1
  S  S21  1  0.29912683  0.88369484  0.25000000  1
  S  S22  1  0.70087317  0.11630516  0.75000000  1
  S  S23  1  0.20087317  0.38369484  0.25000000  1
  S  S24  1  0.74294946  0.83222026  0.36287099  1
  S  S25  1  0.24294946  0.66777974  0.63712901  1
  S  S26  1  0.75705054  0.33222026  0.13712901  1
  S  S27  1  0.75705054  0.33222026  0.36287099  1
  S  S28  1  0.25705054  0.16777974  0.63712901  1
  S  S29  1  0.74294946  0.83222026  0.13712901  1
  S  S30  1  0.24294946  0.66777974  0.86287099  1
  S  S31  1  0.25705054  0.16777974  0.86287099  1
  N  N32  1  0.28577975  0.26329966  0.75000000  1
  N  N33  1  0.21422025  0.76329966  0.75000000  1
  N  N34  1  0.71422025  0.73670034  0.25000000  1
  N  N35  1  0.78577975  0.23670034  0.25000000  1
