# generated using pymatgen
data_Te2Au
_symmetry_space_group_name_H-M   'P 1'
_cell_length_a   4.21703816
_cell_length_b   4.21703860
_cell_length_c   5.21351050
_cell_angle_alpha   89.95484772
_cell_angle_beta   90.04515673
_cell_angle_gamma   119.85471962
_symmetry_Int_Tables_number   1
_chemical_formula_structural   Te2Au
_chemical_formula_sum   'Te2 Au1'
_cell_volume   80.40993926
_cell_formula_units_Z   1
loop_
 _symmetry_equiv_pos_site_id
 _symmetry_equiv_pos_as_xyz
  1  'x, y, z'
loop_
 _atom_site_type_symbol
 _atom_site_label
 _atom_site_symmetry_multiplicity
 _atom_site_fract_x
 _atom_site_fract_y
 _atom_site_fract_z
 _atom_site_occupancy
  Te  Te0  1  0.32772028  0.67227972  0.71094532  1
  Te  Te1  1  0.67227972  0.32772028  0.28905468  1
  Au  Au2  1  0.00000000  0.00000000  0.00000000  1
