# generated using pymatgen
data_W2N
_symmetry_space_group_name_H-M   'P 1'
_cell_length_a   2.83503971
_cell_length_b   2.83503971
_cell_length_c   17.65214241
_cell_angle_alpha   90.00000000
_cell_angle_beta   90.00000000
_cell_angle_gamma   119.99999149
_symmetry_Int_Tables_number   1
_chemical_formula_structural   W2N
_chemical_formula_sum   'W6 N3'
_cell_volume   122.87014870
_cell_formula_units_Z   3
loop_
 _symmetry_equiv_pos_site_id
 _symmetry_equiv_pos_as_xyz
  1  'x, y, z'
loop_
 _atom_site_type_symbol
 _atom_site_label
 _atom_site_symmetry_multiplicity
 _atom_site_fract_x
 _atom_site_fract_y
 _atom_site_fract_z
 _atom_site_occupancy
  W  W0  1  0.00000000  0.00000000  0.07561505  1
  W  W1  1  0.00000000  0.00000000  0.92438495  1
  W  W2  1  0.66666700  0.33333300  0.26220351  1
  W  W3  1  0.33333300  0.66666700  0.73779649  1
  W  W4  1  0.66666700  0.33333300  0.41696622  1
  W  W5  1  0.33333300  0.66666700  0.58303378  1
  N  N6  1  0.00000000  0.00000000  0.50000000  1
  N  N7  1  0.66666700  0.33333300  0.15043520  1
  N  N8  1  0.33333300  0.66666700  0.84956480  1
