# generated using pymatgen
data_ScAg(PSe3)2
_symmetry_space_group_name_H-M   'P 1'
_cell_length_a   6.51037622
_cell_length_b   6.51037622
_cell_length_c   13.43636172
_cell_angle_alpha   90.00000000
_cell_angle_beta   90.00000000
_cell_angle_gamma   120.00000237
_symmetry_Int_Tables_number   1
_chemical_formula_structural   ScAg(PSe3)2
_chemical_formula_sum   'Sc2 Ag2 P4 Se12'
_cell_volume   493.20160422
_cell_formula_units_Z   2
loop_
 _symmetry_equiv_pos_site_id
 _symmetry_equiv_pos_as_xyz
  1  'x, y, z'
loop_
 _atom_site_type_symbol
 _atom_site_label
 _atom_site_symmetry_multiplicity
 _atom_site_fract_x
 _atom_site_fract_y
 _atom_site_fract_z
 _atom_site_occupancy
  Sc  Sc0  1  0.00000000  0.00000000  0.25000000  1
  Sc  Sc1  1  0.00000000  0.00000000  0.75000000  1
  Ag  Ag2  1  0.33333300  0.66666700  0.75000000  1
  Ag  Ag3  1  0.66666700  0.33333300  0.25000000  1
  P  P4  1  0.66666700  0.33333300  0.66585857  1
  P  P5  1  0.66666700  0.33333300  0.83414143  1
  P  P6  1  0.33333300  0.66666700  0.33414143  1
  P  P7  1  0.33333300  0.66666700  0.16585857  1
  Se  Se8  1  0.67256680  0.97962227  0.38184148  1
  Se  Se9  1  0.30705547  0.97962227  0.11815852  1
  Se  Se10  1  0.97962227  0.30705547  0.61815852  1
  Se  Se11  1  0.69294453  0.67256680  0.61815852  1
  Se  Se12  1  0.32743320  0.02037773  0.61815852  1
  Se  Se13  1  0.02037773  0.69294453  0.38184148  1
  Se  Se14  1  0.32743320  0.30705547  0.88184148  1
  Se  Se15  1  0.02037773  0.32743320  0.11815852  1
  Se  Se16  1  0.97962227  0.67256680  0.88184148  1
  Se  Se17  1  0.67256680  0.69294453  0.11815852  1
  Se  Se18  1  0.69294453  0.02037773  0.88184148  1
  Se  Se19  1  0.30705547  0.32743320  0.38184148  1
