# generated using pymatgen
data_MgCl2
_symmetry_space_group_name_H-M   'P 1'
_cell_length_a   7.05650516
_cell_length_b   7.08754838
_cell_length_c   7.08724475
_cell_angle_alpha   63.40981481
_cell_angle_beta   42.64150542
_cell_angle_gamma   44.07283150
_symmetry_Int_Tables_number   1
_chemical_formula_structural   MgCl2
_chemical_formula_sum   'Mg2 Cl4'
_cell_volume   164.53549780
_cell_formula_units_Z   2
loop_
 _symmetry_equiv_pos_site_id
 _symmetry_equiv_pos_as_xyz
  1  'x, y, z'
loop_
 _atom_site_type_symbol
 _atom_site_label
 _atom_site_symmetry_multiplicity
 _atom_site_fract_x
 _atom_site_fract_y
 _atom_site_fract_z
 _atom_site_occupancy
  Mg  Mg0  1  0.50010736  0.86783390  0.86784209  1
  Mg  Mg1  1  0.49989264  0.13216610  0.13215791  1
  Cl  Cl2  1  0.97699789  0.76239312  0.76064151  1
  Cl  Cl3  1  0.02300211  0.23760688  0.23935849  1
  Cl  Cl4  1  0.50000000  -0.00000000  0.50000000  1
  Cl  Cl5  1  0.50000000  0.50000000  0.00000000  1
