# generated using pymatgen
data_RbI3
_symmetry_space_group_name_H-M   'P 1'
_cell_length_a   6.60375645
_cell_length_b   9.73487425
_cell_length_c   10.75590882
_cell_angle_alpha   90.00000000
_cell_angle_beta   90.00000000
_cell_angle_gamma   90.00000000
_symmetry_Int_Tables_number   1
_chemical_formula_structural   RbI3
_chemical_formula_sum   'Rb4 I12'
_cell_volume   691.46229906
_cell_formula_units_Z   4
loop_
 _symmetry_equiv_pos_site_id
 _symmetry_equiv_pos_as_xyz
  1  'x, y, z'
loop_
 _atom_site_type_symbol
 _atom_site_label
 _atom_site_symmetry_multiplicity
 _atom_site_fract_x
 _atom_site_fract_y
 _atom_site_fract_z
 _atom_site_occupancy
  Rb  Rb0  1  0.25000000  0.47484532  0.83061714  1
  Rb  Rb1  1  0.75000000  0.52515468  0.16938286  1
  Rb  Rb2  1  0.75000000  0.97484532  0.66938286  1
  Rb  Rb3  1  0.25000000  0.02515468  0.33061714  1
  I  I4  1  0.25000000  0.54273050  0.37447351  1
  I  I5  1  0.75000000  0.45726950  0.62552649  1
  I  I6  1  0.75000000  0.04273050  0.12552649  1
  I  I7  1  0.25000000  0.95726950  0.87447351  1
  I  I8  1  0.25000000  0.73889638  0.57873546  1
  I  I9  1  0.75000000  0.26110362  0.42126454  1
  I  I10  1  0.75000000  0.23889638  0.92126454  1
  I  I11  1  0.25000000  0.76110362  0.07873546  1
  I  I12  1  0.25000000  0.15652270  0.65508512  1
  I  I13  1  0.75000000  0.84347730  0.34491488  1
  I  I14  1  0.75000000  0.65652270  0.84491488  1
  I  I15  1  0.25000000  0.34347730  0.15508512  1
