# generated using pymatgen
data_Al3Te3I
_symmetry_space_group_name_H-M   'P 1'
_cell_length_a   4.14189841
_cell_length_b   11.35708190
_cell_length_c   19.90439523
_cell_angle_alpha   90.00000000
_cell_angle_beta   90.00000000
_cell_angle_gamma   90.00000000
_symmetry_Int_Tables_number   1
_chemical_formula_structural   Al3Te3I
_chemical_formula_sum   'Al12 Te12 I4'
_cell_volume   936.30035140
_cell_formula_units_Z   4
loop_
 _symmetry_equiv_pos_site_id
 _symmetry_equiv_pos_as_xyz
  1  'x, y, z'
loop_
 _atom_site_type_symbol
 _atom_site_label
 _atom_site_symmetry_multiplicity
 _atom_site_fract_x
 _atom_site_fract_y
 _atom_site_fract_z
 _atom_site_occupancy
  Al  Al0  1  0.75000000  0.83785065  0.63294994  1
  Al  Al1  1  0.75000000  0.94981530  0.10140982  1
  Al  Al2  1  0.25000000  0.05018470  0.89859018  1
  Al  Al3  1  0.75000000  0.44981530  0.39859018  1
  Al  Al4  1  0.75000000  0.82896151  0.99227162  1
  Al  Al5  1  0.25000000  0.17103849  0.00772838  1
  Al  Al6  1  0.25000000  0.55018470  0.60140982  1
  Al  Al7  1  0.25000000  0.67103849  0.49227162  1
  Al  Al8  1  0.25000000  0.66214935  0.13294994  1
  Al  Al9  1  0.75000000  0.33785065  0.86705006  1
  Al  Al10  1  0.25000000  0.16214935  0.36705006  1
  Al  Al11  1  0.75000000  0.32896151  0.50772838  1
  Te  Te12  1  0.25000000  0.09130229  0.13522173  1
  Te  Te13  1  0.25000000  0.67383949  -0.00106076  1
  Te  Te14  1  0.75000000  0.32616051  0.00106076  1
  Te  Te15  1  0.25000000  0.17383949  0.50106076  1
  Te  Te16  1  0.75000000  0.82616051  0.49893924  1
  Te  Te17  1  0.75000000  0.90869771  0.86477827  1
  Te  Te18  1  0.75000000  0.27128807  0.30803918  1
  Te  Te19  1  0.75000000  0.40869771  0.63522173  1
  Te  Te20  1  0.75000000  0.77128807  0.19196082  1
  Te  Te21  1  0.25000000  0.22871193  0.80803918  1
  Te  Te22  1  0.25000000  0.72871193  0.69196082  1
  Te  Te23  1  0.25000000  0.59130229  0.36477827  1
  I  I24  1  0.75000000  0.55158600  0.83072945  1
  I  I25  1  0.75000000  0.05158600  0.66927055  1
  I  I26  1  0.25000000  0.94841400  0.33072945  1
  I  I27  1  0.25000000  0.44841400  0.16927055  1
