# generated using pymatgen
data_TiI3
_symmetry_space_group_name_H-M   'P 1'
_cell_length_a   6.41355638
_cell_length_b   7.15146859
_cell_length_c   12.37217140
_cell_angle_alpha   90.00000000
_cell_angle_beta   90.00000000
_cell_angle_gamma   90.00000000
_symmetry_Int_Tables_number   1
_chemical_formula_structural   TiI3
_chemical_formula_sum   'Ti4 I12'
_cell_volume   567.46630710
_cell_formula_units_Z   4
loop_
 _symmetry_equiv_pos_site_id
 _symmetry_equiv_pos_as_xyz
  1  'x, y, z'
loop_
 _atom_site_type_symbol
 _atom_site_label
 _atom_site_symmetry_multiplicity
 _atom_site_fract_x
 _atom_site_fract_y
 _atom_site_fract_z
 _atom_site_occupancy
  Ti  Ti0  1  0.72856186  0.75341765  0.50000000  1
  Ti  Ti1  1  0.22856186  0.24658235  0.00000000  1
  Ti  Ti2  1  0.27143814  0.75341765  0.50000000  1
  Ti  Ti3  1  0.77143814  0.24658235  0.00000000  1
  I  I4  1  0.50000000  0.59003884  0.33697627  1
  I  I5  1  0.00000000  0.40996116  0.16302373  1
  I  I6  1  0.50000000  0.59003884  0.66302373  1
  I  I7  1  0.00000000  0.40996116  0.83697627  1
  I  I8  1  0.50000000  0.09020654  0.84285560  1
  I  I9  1  0.00000000  0.90979346  0.65714440  1
  I  I10  1  0.50000000  0.09020654  0.15714440  1
  I  I11  1  0.00000000  0.90979346  0.34285560  1
  I  I12  1  0.50000000  0.07894224  0.50000000  1
  I  I13  1  0.00000000  0.92105776  0.00000000  1
  I  I14  1  0.50000000  0.56086834  0.00000000  1
  I  I15  1  0.00000000  0.43913166  0.50000000  1
