# generated using pymatgen
data_SrBiBrO2
_symmetry_space_group_name_H-M   'P 1'
_cell_length_a   5.82119528
_cell_length_b   5.72429557
_cell_length_c   7.04319011
_cell_angle_alpha   90.00000000
_cell_angle_beta   114.40924680
_cell_angle_gamma   90.00000000
_symmetry_Int_Tables_number   1
_chemical_formula_structural   SrBiBrO2
_chemical_formula_sum   'Sr2 Bi2 Br2 O4'
_cell_volume   213.71714980
_cell_formula_units_Z   2
loop_
 _symmetry_equiv_pos_site_id
 _symmetry_equiv_pos_as_xyz
  1  'x, y, z'
loop_
 _atom_site_type_symbol
 _atom_site_label
 _atom_site_symmetry_multiplicity
 _atom_site_fract_x
 _atom_site_fract_y
 _atom_site_fract_z
 _atom_site_occupancy
  Sr  Sr0  1  0.60368540  0.75000000  0.20735590  1
  Sr  Sr1  1  0.39631460  0.25000000  0.79264410  1
  Bi  Bi2  1  0.08060770  0.25000000  0.16123018  1
  Bi  Bi3  1  0.91939230  0.75000000  0.83876982  1
  Br  Br4  1  0.25491024  0.75000000  0.50985833  1
  Br  Br5  1  0.74508976  0.25000000  0.49014167  1
  O  O6  1  0.76485239  0.00000017  0.99998956  1
  O  O7  1  0.23514761  0.50000017  0.00001044  1
  O  O8  1  0.23514761  -0.00000017  0.00001044  1
  O  O9  1  0.76485239  0.49999983  0.99998956  1
