# generated using pymatgen
data_ZrCl2
_symmetry_space_group_name_H-M   'P 1'
_cell_length_a   6.75522151
_cell_length_b   6.75522137
_cell_length_c   6.75522194
_cell_angle_alpha   29.23130040
_cell_angle_beta   29.23130148
_cell_angle_gamma   29.23130533
_symmetry_Int_Tables_number   1
_chemical_formula_structural   ZrCl2
_chemical_formula_sum   'Zr1 Cl2'
_cell_volume   65.04217381
_cell_formula_units_Z   1
loop_
 _symmetry_equiv_pos_site_id
 _symmetry_equiv_pos_as_xyz
  1  'x, y, z'
loop_
 _atom_site_type_symbol
 _atom_site_label
 _atom_site_symmetry_multiplicity
 _atom_site_fract_x
 _atom_site_fract_y
 _atom_site_fract_z
 _atom_site_occupancy
  Zr  Zr0  1  0.00006791  0.00006791  0.00006791  1
  Cl  Cl1  1  0.42206653  0.42206653  0.42206653  1
  Cl  Cl2  1  0.24476556  0.24476556  0.24476556  1
