# generated using pymatgen
data_Cd(HO)2
_symmetry_space_group_name_H-M   'P 1'
_cell_length_a   3.55072325
_cell_length_b   3.55073239
_cell_length_c   4.63120052
_cell_angle_alpha   90.00009177
_cell_angle_beta   90.00024353
_cell_angle_gamma   119.99993256
_symmetry_Int_Tables_number   1
_chemical_formula_structural   Cd(HO)2
_chemical_formula_sum   'Cd1 H2 O2'
_cell_volume   50.56607888
_cell_formula_units_Z   1
loop_
 _symmetry_equiv_pos_site_id
 _symmetry_equiv_pos_as_xyz
  1  'x, y, z'
loop_
 _atom_site_type_symbol
 _atom_site_label
 _atom_site_symmetry_multiplicity
 _atom_site_fract_x
 _atom_site_fract_y
 _atom_site_fract_z
 _atom_site_occupancy
  Cd  Cd0  1  0.00000000  0.00000000  0.00000000  1
  H  H1  1  0.66666237  0.33333069  0.54737141  1
  H  H2  1  0.33333763  0.66666931  0.45262859  1
  O  O3  1  0.66666465  0.33333333  0.75869068  1
  O  O4  1  0.33333535  0.66666667  0.24130932  1
