# generated using pymatgen
data_K2PdO2
_symmetry_space_group_name_H-M   'P 1'
_cell_length_a   3.16299076
_cell_length_b   5.45845182
_cell_length_c   5.45845175
_cell_angle_alpha   67.36597162
_cell_angle_beta   73.15801634
_cell_angle_gamma   73.15800995
_symmetry_Int_Tables_number   1
_chemical_formula_structural   K2PdO2
_chemical_formula_sum   'K2 Pd1 O2'
_cell_volume   81.53921831
_cell_formula_units_Z   1
loop_
 _symmetry_equiv_pos_site_id
 _symmetry_equiv_pos_as_xyz
  1  'x, y, z'
loop_
 _atom_site_type_symbol
 _atom_site_label
 _atom_site_symmetry_multiplicity
 _atom_site_fract_x
 _atom_site_fract_y
 _atom_site_fract_z
 _atom_site_occupancy
  K  K0  1  0.17638549  0.32361451  0.32361451  1
  K  K1  1  0.82361451  0.67638549  0.67638549  1
  Pd  Pd2  1  0.00000000  0.00000000  0.00000000  1
  O  O3  1  0.50000000  0.22149454  0.77850546  1
  O  O4  1  0.50000000  0.77850546  0.22149454  1
