# generated using pymatgen
data_GaS
_symmetry_space_group_name_H-M   'P 1'
_cell_length_a   8.03642804
_cell_length_b   8.03642796
_cell_length_c   8.03642820
_cell_angle_alpha   26.10959060
_cell_angle_beta   26.10959335
_cell_angle_gamma   26.10958691
_symmetry_Int_Tables_number   1
_chemical_formula_structural   GaS
_chemical_formula_sum   'Ga2 S2'
_cell_volume   88.56189804
_cell_formula_units_Z   2
loop_
 _symmetry_equiv_pos_site_id
 _symmetry_equiv_pos_as_xyz
  1  'x, y, z'
loop_
 _atom_site_type_symbol
 _atom_site_label
 _atom_site_symmetry_multiplicity
 _atom_site_fract_x
 _atom_site_fract_y
 _atom_site_fract_z
 _atom_site_occupancy
  Ga  Ga0  1  0.94735077  0.94735077  0.94735077  1
  Ga  Ga1  1  0.05264923  0.05264923  0.05264923  1
  S  S2  1  0.23430808  0.23430808  0.23430808  1
  S  S3  1  0.76569192  0.76569192  0.76569192  1
