# generated using pymatgen
data_AlP
_symmetry_space_group_name_H-M   'P 1'
_cell_length_a   7.76298525
_cell_length_b   7.75981133
_cell_length_c   4.62124550
_cell_angle_alpha   90.00004983
_cell_angle_beta   89.99995415
_cell_angle_gamma   90.00075302
_symmetry_Int_Tables_number   1
_chemical_formula_structural   AlP
_chemical_formula_sum   'Al4 P4'
_cell_volume   278.38059812
_cell_formula_units_Z   4
loop_
 _symmetry_equiv_pos_site_id
 _symmetry_equiv_pos_as_xyz
  1  'x, y, z'
loop_
 _atom_site_type_symbol
 _atom_site_label
 _atom_site_symmetry_multiplicity
 _atom_site_fract_x
 _atom_site_fract_y
 _atom_site_fract_z
 _atom_site_occupancy
  Al  Al0  1  0.35978060  0.64091984  0.49999864  1
  Al  Al1  1  0.14221237  0.14092857  0.49999850  1
  Al  Al2  1  0.85978181  0.85907999  0.49999892  1
  Al  Al3  1  0.64221290  0.35907133  0.49999877  1
  P  P4  1  0.15475856  0.84582287  0.50000171  1
  P  P5  1  0.84724797  0.15418770  0.50000089  1
  P  P6  1  0.65475717  0.65417539  0.49999966  1
  P  P7  1  0.34724862  0.34581431  0.50000291  1
