# generated using pymatgen
data_Nb3I8
_symmetry_space_group_name_H-M   'P 1'
_cell_length_a   14.74006402
_cell_length_b   14.74006385
_cell_length_c   14.74006372
_cell_angle_alpha   30.15468161
_cell_angle_beta   30.15468172
_cell_angle_gamma   30.15468324
_symmetry_Int_Tables_number   1
_chemical_formula_structural   Nb3I8
_chemical_formula_sum   'Nb6 I16'
_cell_volume   716.00111695
_cell_formula_units_Z   2
loop_
 _symmetry_equiv_pos_site_id
 _symmetry_equiv_pos_as_xyz
  1  'x, y, z'
loop_
 _atom_site_type_symbol
 _atom_site_label
 _atom_site_symmetry_multiplicity
 _atom_site_fract_x
 _atom_site_fract_y
 _atom_site_fract_z
 _atom_site_occupancy
  Nb  Nb0  1  0.54618685  0.15465245  0.54618685  1
  Nb  Nb1  1  0.54618685  0.54618685  0.15465245  1
  Nb  Nb2  1  0.15465245  0.54618685  0.54618685  1
  Nb  Nb3  1  0.84534755  0.45381315  0.45381315  1
  Nb  Nb4  1  0.45381315  0.84534755  0.45381315  1
  Nb  Nb5  1  0.45381315  0.45381315  0.84534755  1
  I  I6  1  0.78410551  0.78410551  0.78410551  1
  I  I7  1  0.21589449  0.21589449  0.21589449  1
  I  I8  1  0.11748219  0.11748219  0.62784595  1
  I  I9  1  0.11748219  0.62784595  0.11748219  1
  I  I10  1  0.62784595  0.11748219  0.11748219  1
  I  I11  1  0.37215405  0.88251781  0.88251781  1
  I  I12  1  0.88251781  0.88251781  0.37215405  1
  I  I13  1  0.70630171  0.20495904  0.70630171  1
  I  I14  1  0.70630171  0.70630171  0.20495904  1
  I  I15  1  0.36435475  0.36435475  0.36435475  1
  I  I16  1  0.20495904  0.70630171  0.70630171  1
  I  I17  1  0.79504096  0.29369829  0.29369829  1
  I  I18  1  0.29369829  0.29369829  0.79504096  1
  I  I19  1  0.29369829  0.79504096  0.29369829  1
  I  I20  1  0.88251781  0.37215405  0.88251781  1
  I  I21  1  0.63564525  0.63564525  0.63564525  1
