# generated using pymatgen
data_PbI2
_symmetry_space_group_name_H-M   'P 1'
_cell_length_a   7.57340206
_cell_length_b   7.57340245
_cell_length_c   7.57340271
_cell_angle_alpha   35.22124511
_cell_angle_beta   35.22124171
_cell_angle_gamma   35.22124201
_symmetry_Int_Tables_number   1
_chemical_formula_structural   PbI2
_chemical_formula_sum   'Pb1 I2'
_cell_volume   129.05776583
_cell_formula_units_Z   1
loop_
 _symmetry_equiv_pos_site_id
 _symmetry_equiv_pos_as_xyz
  1  'x, y, z'
loop_
 _atom_site_type_symbol
 _atom_site_label
 _atom_site_symmetry_multiplicity
 _atom_site_fract_x
 _atom_site_fract_y
 _atom_site_fract_z
 _atom_site_occupancy
  Pb  Pb0  1  0.00000000  0.00000000  0.00000000  1
  I  I1  1  0.75580533  0.75580533  0.75580533  1
  I  I2  1  0.24419467  0.24419467  0.24419467  1
