# generated using pymatgen
data_TeO2
_symmetry_space_group_name_H-M   'P 1'
_cell_length_a   5.45693131
_cell_length_b   5.72322351
_cell_length_c   11.82572224
_cell_angle_alpha   90.00000000
_cell_angle_beta   90.00000000
_cell_angle_gamma   90.00000000
_symmetry_Int_Tables_number   1
_chemical_formula_structural   TeO2
_chemical_formula_sum   'Te8 O16'
_cell_volume   369.33194069
_cell_formula_units_Z   8
loop_
 _symmetry_equiv_pos_site_id
 _symmetry_equiv_pos_as_xyz
  1  'x, y, z'
loop_
 _atom_site_type_symbol
 _atom_site_label
 _atom_site_symmetry_multiplicity
 _atom_site_fract_x
 _atom_site_fract_y
 _atom_site_fract_z
 _atom_site_occupancy
  Te  Te0  1  0.02074566  0.12891993  0.12096848  1
  Te  Te1  1  0.97925434  0.62891993  0.37903152  1
  Te  Te2  1  0.47925434  0.87108007  0.62096848  1
  Te  Te3  1  0.97925434  0.87108007  0.87903152  1
  Te  Te4  1  0.47925434  0.62891993  0.12096848  1
  Te  Te5  1  0.02074566  0.37108007  0.62096848  1
  Te  Te6  1  0.52074566  0.12891993  0.37903152  1
  Te  Te7  1  0.52074566  0.37108007  0.87903152  1
  O  O8  1  0.85484851  0.66451236  0.53139637  1
  O  O9  1  0.35484851  0.83548764  0.46860363  1
  O  O10  1  0.14515149  0.16451236  0.96860363  1
  O  O11  1  0.64515149  0.33548764  0.03139637  1
  O  O12  1  0.71829894  0.42297973  0.32589320  1
  O  O13  1  0.85484851  0.83548764  0.03139637  1
  O  O14  1  0.35484851  0.66451236  0.96860363  1
  O  O15  1  0.21829894  0.42297973  0.17410680  1
  O  O16  1  0.71829894  0.07702027  0.82589320  1
  O  O17  1  0.78170106  0.92297973  0.32589320  1
  O  O18  1  0.28170106  0.57702027  0.67410680  1
  O  O19  1  0.78170106  0.57702027  0.82589320  1
  O  O20  1  0.28170106  0.92297973  0.17410680  1
  O  O21  1  0.21829894  0.07702027  0.67410680  1
  O  O22  1  0.64515149  0.16451236  0.53139637  1
  O  O23  1  0.14515149  0.33548764  0.46860363  1
