# generated using pymatgen
data_PbBr2
_symmetry_space_group_name_H-M   'P 1'
_cell_length_a   4.75923507
_cell_length_b   8.03944853
_cell_length_c   9.66949589
_cell_angle_alpha   90.00000000
_cell_angle_beta   90.00000000
_cell_angle_gamma   90.00000000
_symmetry_Int_Tables_number   1
_chemical_formula_structural   PbBr2
_chemical_formula_sum   'Pb4 Br8'
_cell_volume   369.97062967
_cell_formula_units_Z   4
loop_
 _symmetry_equiv_pos_site_id
 _symmetry_equiv_pos_as_xyz
  1  'x, y, z'
loop_
 _atom_site_type_symbol
 _atom_site_label
 _atom_site_symmetry_multiplicity
 _atom_site_fract_x
 _atom_site_fract_y
 _atom_site_fract_z
 _atom_site_occupancy
  Pb  Pb0  1  0.25000000  0.73414808  0.58885193  1
  Pb  Pb1  1  0.75000000  0.26585192  0.41114807  1
  Pb  Pb2  1  0.25000000  0.23414808  0.91114807  1
  Pb  Pb3  1  0.75000000  0.76585192  0.08885193  1
  Br  Br4  1  0.25000000  0.51543798  0.33835443  1
  Br  Br5  1  0.75000000  0.48456202  0.66164557  1
  Br  Br6  1  0.25000000  0.01543798  0.16164557  1
  Br  Br7  1  0.75000000  0.98456202  0.83835443  1
  Br  Br8  1  0.75000000  0.35823722  0.08150532  1
  Br  Br9  1  0.25000000  0.64176278  0.91849468  1
  Br  Br10  1  0.75000000  0.85823722  0.41849468  1
  Br  Br11  1  0.25000000  0.14176278  0.58150532  1
