# generated using pymatgen
data_CrBr3
_symmetry_space_group_name_H-M   'P 1'
_cell_length_a   6.34702025
_cell_length_b   6.34702025
_cell_length_c   18.25097427
_cell_angle_alpha   90.00000000
_cell_angle_beta   90.00000000
_cell_angle_gamma   119.99999847
_symmetry_Int_Tables_number   1
_chemical_formula_structural   CrBr3
_chemical_formula_sum   'Cr6 Br18'
_cell_volume   636.73168144
_cell_formula_units_Z   6
loop_
 _symmetry_equiv_pos_site_id
 _symmetry_equiv_pos_as_xyz
  1  'x, y, z'
loop_
 _atom_site_type_symbol
 _atom_site_label
 _atom_site_symmetry_multiplicity
 _atom_site_fract_x
 _atom_site_fract_y
 _atom_site_fract_z
 _atom_site_occupancy
  Cr  Cr0  1  0.00000000  0.00000000  -0.00026954  1
  Cr  Cr1  1  0.00000000  0.00000000  0.66693853  1
  Cr  Cr2  1  0.33333300  0.66666700  0.33306639  1
  Cr  Cr3  1  0.33333300  0.66666700  0.00026502  1
  Cr  Cr4  1  0.66666700  0.33333300  0.66640361  1
  Cr  Cr5  1  0.66666700  0.33333300  0.33359536  1
  Br  Br6  1  0.68403212  0.66569717  0.74522173  1
  Br  Br7  1  0.98262825  0.66763636  0.58812408  1
  Br  Br8  1  0.68500811  0.01737175  0.58812408  1
  Br  Br9  1  0.33236365  0.31499189  0.58812408  1
  Br  Br10  1  0.00097448  0.35167354  0.41187844  1
  Br  Br11  1  0.35069906  0.99902552  0.41187844  1
  Br  Br12  1  0.64832646  0.64930094  0.41187844  1
  Br  Br13  1  -0.00097418  0.64832341  0.25478134  1
  Br  Br14  1  0.01736414  0.33236261  0.07854622  1
  Br  Br15  1  0.35167659  0.35070241  0.25478134  1
  Br  Br16  1  0.33430283  0.01833495  0.74522173  1
  Br  Br17  1  0.31499847  0.98263586  0.07854622  1
  Br  Br18  1  0.66763739  0.68500153  0.07854622  1
  Br  Br19  1  0.01833792  0.68403375  0.92144940  1
  Br  Br20  1  0.66569583  0.98166208  0.92144940  1
  Br  Br21  1  0.31596625  0.33430417  0.92144940  1
  Br  Br22  1  0.64929759  0.00097418  0.25478134  1
  Br  Br23  1  0.98166505  0.31596788  0.74522173  1
