# generated using pymatgen
data_US3
_symmetry_space_group_name_H-M   'P 1'
_cell_length_a   5.39168148
_cell_length_b   3.90350713
_cell_length_c   9.00018598
_cell_angle_alpha   90.00000000
_cell_angle_beta   97.20576685
_cell_angle_gamma   90.00000000
_symmetry_Int_Tables_number   1
_chemical_formula_structural   US3
_chemical_formula_sum   'U2 S6'
_cell_volume   187.92607769
_cell_formula_units_Z   2
loop_
 _symmetry_equiv_pos_site_id
 _symmetry_equiv_pos_as_xyz
  1  'x, y, z'
loop_
 _atom_site_type_symbol
 _atom_site_label
 _atom_site_symmetry_multiplicity
 _atom_site_fract_x
 _atom_site_fract_y
 _atom_site_fract_z
 _atom_site_occupancy
  U  U0  1  0.71905934  0.25000000  0.85195108  1
  U  U1  1  0.28094066  0.75000000  0.14804892  1
  S  S2  1  0.13305772  0.25000000  0.33795486  1
  S  S3  1  0.86694228  0.75000000  0.66204514  1
  S  S4  1  0.48182114  0.75000000  0.66915727  1
  S  S5  1  0.51817886  0.25000000  0.33084273  1
  S  S6  1  0.76510667  0.75000000  0.06866055  1
  S  S7  1  0.23489333  0.25000000  0.93133945  1
