# generated using pymatgen
data_Pr3OsI3
_symmetry_space_group_name_H-M   'P 1'
_cell_length_a   9.23521292
_cell_length_b   4.33752250
_cell_length_c   12.55651677
_cell_angle_alpha   90.00000000
_cell_angle_beta   93.23684775
_cell_angle_gamma   90.00000000
_symmetry_Int_Tables_number   1
_chemical_formula_structural   Pr3OsI3
_chemical_formula_sum   'Pr6 Os2 I6'
_cell_volume   502.18580563
_cell_formula_units_Z   2
loop_
 _symmetry_equiv_pos_site_id
 _symmetry_equiv_pos_as_xyz
  1  'x, y, z'
loop_
 _atom_site_type_symbol
 _atom_site_label
 _atom_site_symmetry_multiplicity
 _atom_site_fract_x
 _atom_site_fract_y
 _atom_site_fract_z
 _atom_site_occupancy
  Pr  Pr0  1  0.68693815  0.75000000  0.87955923  1
  Pr  Pr1  1  0.88220062  0.25000000  0.66287153  1
  Pr  Pr2  1  0.31306185  0.25000000  0.12044077  1
  Pr  Pr3  1  0.90102158  0.25000000  0.11205535  1
  Pr  Pr4  1  0.11779938  0.75000000  0.33712847  1
  Pr  Pr5  1  0.09897842  0.75000000  0.88794465  1
  Os  Os6  1  0.88883679  0.25000000  0.87865048  1
  Os  Os7  1  0.11116321  0.75000000  0.12134952  1
  I  I8  1  0.39422832  0.25000000  0.86392111  1
  I  I9  1  0.14030844  0.75000000  0.61734453  1
  I  I10  1  0.60577168  0.75000000  0.13607889  1
  I  I11  1  0.37495358  0.25000000  0.37979745  1
  I  I12  1  0.62504642  0.75000000  0.62020255  1
  I  I13  1  0.85969156  0.25000000  0.38265547  1
