# generated using pymatgen
data_Ag2SO4
_symmetry_space_group_name_H-M   'P 1'
_cell_length_a   5.55162955
_cell_length_b   6.29041873
_cell_length_c   6.80452850
_cell_angle_alpha   79.62948941
_cell_angle_beta   65.92472968
_cell_angle_gamma   63.81463448
_symmetry_Int_Tables_number   1
_chemical_formula_structural   Ag2SO4
_chemical_formula_sum   'Ag4 S2 O8'
_cell_volume   194.69098760
_cell_formula_units_Z   2
loop_
 _symmetry_equiv_pos_site_id
 _symmetry_equiv_pos_as_xyz
  1  'x, y, z'
loop_
 _atom_site_type_symbol
 _atom_site_label
 _atom_site_symmetry_multiplicity
 _atom_site_fract_x
 _atom_site_fract_y
 _atom_site_fract_z
 _atom_site_occupancy
  Ag  Ag0  1  0.17656270  0.64687360  0.25000000  1
  Ag  Ag1  1  0.57343730  0.85312640  0.25000000  1
  Ag  Ag2  1  0.82343730  0.35312640  0.75000000  1
  Ag  Ag3  1  0.42656270  0.14687360  0.75000000  1
  S  S4  1  0.87500000  0.25000000  0.25000000  1
  S  S5  1  0.12500000  0.75000000  0.75000000  1
  O  O6  1  0.17449036  0.09523867  0.11090087  1
  O  O7  1  0.88063090  0.40476133  0.38909913  1
  O  O8  1  0.73026997  0.09523867  0.38909913  1
  O  O9  1  0.71460777  0.40476133  0.11090087  1
  O  O10  1  0.82550964  0.90476133  0.88909913  1
  O  O11  1  0.11936910  0.59523867  0.61090087  1
  O  O12  1  0.28539223  0.59523867  0.88909913  1
  O  O13  1  0.26973003  0.90476133  0.61090087  1
