# generated using pymatgen
data_SnF4
_symmetry_space_group_name_H-M   'P 1'
_cell_length_a   4.12806448
_cell_length_b   4.12805166
_cell_length_c   4.88686997
_cell_angle_alpha   114.98453901
_cell_angle_beta   114.98385187
_cell_angle_gamma   89.99999675
_symmetry_Int_Tables_number   1
_chemical_formula_structural   SnF4
_chemical_formula_sum   'Sn1 F4'
_cell_volume   66.78805889
_cell_formula_units_Z   1
loop_
 _symmetry_equiv_pos_site_id
 _symmetry_equiv_pos_as_xyz
  1  'x, y, z'
loop_
 _atom_site_type_symbol
 _atom_site_label
 _atom_site_symmetry_multiplicity
 _atom_site_fract_x
 _atom_site_fract_y
 _atom_site_fract_z
 _atom_site_occupancy
  Sn  Sn0  1  0.00000000  0.00000000  0.00000000  1
  F  F1  1  0.75561111  0.75558984  0.51122223  1
  F  F2  1  -0.00000000  0.50000000  0.00000000  1
  F  F3  1  0.50000000  -0.00000000  0.00000000  1
  F  F4  1  0.24438889  0.24441016  0.48877777  1
