# generated using pymatgen
data_Ta(ICl)2
_symmetry_space_group_name_H-M   'P 1'
_cell_length_a   7.42650303
_cell_length_b   7.42650291
_cell_length_c   7.42650319
_cell_angle_alpha   97.32573640
_cell_angle_beta   112.87674093
_cell_angle_gamma   118.92994418
_symmetry_Int_Tables_number   1
_chemical_formula_structural   Ta(ICl)2
_chemical_formula_sum   'Ta2 I4 Cl4'
_cell_volume   303.94291834
_cell_formula_units_Z   2
loop_
 _symmetry_equiv_pos_site_id
 _symmetry_equiv_pos_as_xyz
  1  'x, y, z'
loop_
 _atom_site_type_symbol
 _atom_site_label
 _atom_site_symmetry_multiplicity
 _atom_site_fract_x
 _atom_site_fract_y
 _atom_site_fract_z
 _atom_site_occupancy
  Ta  Ta0  1  0.29150449  0.29150449  0.00000000  1
  Ta  Ta1  1  0.70849551  0.70849551  -0.00000000  1
  I  I2  1  -0.00000000  0.80497001  0.80497001  1
  I  I3  1  0.00000000  0.19502999  0.19502999  1
  I  I4  1  0.50000000  0.26745561  0.76745561  1
  I  I5  1  0.50000000  0.73254439  0.23254439  1
  Cl  Cl6  1  0.55312973  0.27002644  0.28310329  1
  Cl  Cl7  1  -0.01307685  0.27002644  0.71689671  1
  Cl  Cl8  1  0.01307685  0.72997356  0.28310329  1
  Cl  Cl9  1  0.44687027  0.72997356  0.71689671  1
