# generated using pymatgen
data_PtCl2
_symmetry_space_group_name_H-M   'P 1'
_cell_length_a   4.65233809
_cell_length_b   7.39836669
_cell_length_c   4.49778604
_cell_angle_alpha   105.77000126
_cell_angle_beta   103.05189539
_cell_angle_gamma   95.16878178
_symmetry_Int_Tables_number   1
_chemical_formula_structural   PtCl2
_chemical_formula_sum   'Pt2 Cl4'
_cell_volume   143.22971162
_cell_formula_units_Z   2
loop_
 _symmetry_equiv_pos_site_id
 _symmetry_equiv_pos_as_xyz
  1  'x, y, z'
loop_
 _atom_site_type_symbol
 _atom_site_label
 _atom_site_symmetry_multiplicity
 _atom_site_fract_x
 _atom_site_fract_y
 _atom_site_fract_z
 _atom_site_occupancy
  Pt  Pt0  1  0.22020048  0.59891593  0.28749670  1
  Pt  Pt1  1  0.77979800  0.40108333  0.71250215  1
  Cl  Cl2  1  0.24973437  0.85678569  0.11202280  1
  Cl  Cl3  1  0.24939684  0.34926763  0.53158816  1
  Cl  Cl4  1  0.75060540  0.65073330  0.46841392  1
  Cl  Cl5  1  0.75026491  0.14321513  0.88797627  1
