# generated using pymatgen
data_Re(AgCl3)2
_symmetry_space_group_name_H-M   'P 1'
_cell_length_a   6.77701467
_cell_length_b   6.77701536
_cell_length_c   6.77701533
_cell_angle_alpha   57.77628775
_cell_angle_beta   57.77628355
_cell_angle_gamma   57.77628421
_symmetry_Int_Tables_number   1
_chemical_formula_structural   Re(AgCl3)2
_chemical_formula_sum   'Re1 Ag2 Cl6'
_cell_volume   208.84993390
_cell_formula_units_Z   1
loop_
 _symmetry_equiv_pos_site_id
 _symmetry_equiv_pos_as_xyz
  1  'x, y, z'
loop_
 _atom_site_type_symbol
 _atom_site_label
 _atom_site_symmetry_multiplicity
 _atom_site_fract_x
 _atom_site_fract_y
 _atom_site_fract_z
 _atom_site_occupancy
  Re  Re0  1  0.50000000  0.50000000  0.50000000  1
  Ag  Ag1  1  0.25442291  0.25442291  0.25442291  1
  Ag  Ag2  1  0.74557709  0.74557709  0.74557709  1
  Cl  Cl3  1  0.85065251  0.26346579  0.63029619  1
  Cl  Cl4  1  0.26346579  0.63029619  0.85065251  1
  Cl  Cl5  1  0.63029619  0.85065251  0.26346579  1
  Cl  Cl6  1  0.36970381  0.14934749  0.73653421  1
  Cl  Cl7  1  0.73653421  0.36970381  0.14934749  1
  Cl  Cl8  1  0.14934749  0.73653421  0.36970381  1
