# generated using pymatgen
data_PPdSe
_symmetry_space_group_name_H-M   'P 1'
_cell_length_a   5.89914682
_cell_length_b   5.93669841
_cell_length_c   13.89697060
_cell_angle_alpha   90.00000000
_cell_angle_beta   90.00000000
_cell_angle_gamma   90.00000000
_symmetry_Int_Tables_number   1
_chemical_formula_structural   PPdSe
_chemical_formula_sum   'P8 Pd8 Se8'
_cell_volume   486.69213795
_cell_formula_units_Z   8
loop_
 _symmetry_equiv_pos_site_id
 _symmetry_equiv_pos_as_xyz
  1  'x, y, z'
loop_
 _atom_site_type_symbol
 _atom_site_label
 _atom_site_symmetry_multiplicity
 _atom_site_fract_x
 _atom_site_fract_y
 _atom_site_fract_z
 _atom_site_occupancy
  P  P0  1  0.62383008  0.28705193  0.57837342  1
  P  P1  1  0.62383008  0.21294807  0.42162658  1
  P  P2  1  0.87616992  0.78705193  0.92162658  1
  P  P3  1  0.87616992  0.71294807  0.07837342  1
  P  P4  1  0.37616992  0.71294807  0.42162658  1
  P  P5  1  0.37616992  0.78705193  0.57837342  1
  P  P6  1  0.12383008  0.21294807  0.07837342  1
  P  P7  1  0.12383008  0.28705193  0.92162658  1
  Pd  Pd8  1  0.25930073  0.15498098  0.60866635  1
  Pd  Pd9  1  0.25930073  0.34501902  0.39133365  1
  Pd  Pd10  1  0.24069927  0.65498098  0.89133365  1
  Pd  Pd11  1  0.24069927  0.84501902  0.10866635  1
  Pd  Pd12  1  0.74069927  0.84501902  0.39133365  1
  Pd  Pd13  1  0.74069927  0.65498098  0.60866635  1
  Pd  Pd14  1  0.75930073  0.34501902  0.10866635  1
  Pd  Pd15  1  0.75930073  0.15498098  0.89133365  1
  Se  Se16  1  0.36610042  0.04030635  0.84352186  1
  Se  Se17  1  0.36610042  0.45969365  0.15647814  1
  Se  Se18  1  0.13389958  0.54030635  0.65647814  1
  Se  Se19  1  0.13389958  0.95969365  0.34352186  1
  Se  Se20  1  0.63389958  0.95969365  0.15647814  1
  Se  Se21  1  0.63389958  0.54030635  0.84352186  1
  Se  Se22  1  0.86610042  0.45969365  0.34352186  1
  Se  Se23  1  0.86610042  0.04030635  0.65647814  1
