# generated using pymatgen
data_PPdS
_symmetry_space_group_name_H-M   'P 1'
_cell_length_a   5.73112067
_cell_length_b   5.75624299
_cell_length_c   13.58836296
_cell_angle_alpha   90.00000000
_cell_angle_beta   90.00000000
_cell_angle_gamma   90.00000000
_symmetry_Int_Tables_number   1
_chemical_formula_structural   PPdS
_chemical_formula_sum   'P8 Pd8 S8'
_cell_volume   448.27633239
_cell_formula_units_Z   8
loop_
 _symmetry_equiv_pos_site_id
 _symmetry_equiv_pos_as_xyz
  1  'x, y, z'
loop_
 _atom_site_type_symbol
 _atom_site_label
 _atom_site_symmetry_multiplicity
 _atom_site_fract_x
 _atom_site_fract_y
 _atom_site_fract_z
 _atom_site_occupancy
  P  P0  1  0.86903889  0.21761886  0.58124842  1
  P  P1  1  0.86903889  0.28238114  0.41875158  1
  P  P2  1  0.63096111  0.78238114  0.08124842  1
  P  P3  1  0.36903789  0.21761886  0.91875158  1
  P  P4  1  0.36903789  0.28238114  0.08124842  1
  P  P5  1  0.13096111  0.71761886  0.58124842  1
  P  P6  1  0.13096111  0.78238114  0.41875158  1
  P  P7  1  0.63096111  0.71761886  0.91875158  1
  Pd  Pd8  1  0.25201548  0.66063576  0.11207912  1
  Pd  Pd9  1  0.25201548  0.83936424  0.88792088  1
  Pd  Pd10  1  0.24798452  0.16063576  0.38792088  1
  Pd  Pd11  1  0.24798452  0.33936424  0.61207912  1
  Pd  Pd12  1  0.74798452  0.33936424  0.88792088  1
  Pd  Pd13  1  0.74798452  0.16063576  0.11207912  1
  Pd  Pd14  1  0.75201548  0.83936424  0.61207912  1
  Pd  Pd15  1  0.75201548  0.66063576  0.38792088  1
  S  S16  1  0.36367073  0.95306408  0.65264032  1
  S  S17  1  0.13632927  0.04693592  0.15264032  1
  S  S18  1  0.13632927  0.45306408  0.84735968  1
  S  S19  1  0.63632927  0.45306408  0.65264032  1
  S  S20  1  0.86367073  0.54693592  0.15264032  1
  S  S21  1  0.86367073  0.95306408  0.84735968  1
  S  S22  1  0.36367073  0.54693592  0.34735968  1
  S  S23  1  0.63632927  0.04693592  0.34735968  1
