# generated using pymatgen
data_S5N6
_symmetry_space_group_name_H-M   'P 1'
_cell_length_a   7.06954347
_cell_length_b   7.06954363
_cell_length_c   7.36992601
_cell_angle_alpha   99.81839783
_cell_angle_beta   99.81839529
_cell_angle_gamma   103.50570799
_symmetry_Int_Tables_number   1
_chemical_formula_structural   S5N6
_chemical_formula_sum   'S10 N12'
_cell_volume   344.29553394
_cell_formula_units_Z   2
loop_
 _symmetry_equiv_pos_site_id
 _symmetry_equiv_pos_as_xyz
  1  'x, y, z'
loop_
 _atom_site_type_symbol
 _atom_site_label
 _atom_site_symmetry_multiplicity
 _atom_site_fract_x
 _atom_site_fract_y
 _atom_site_fract_z
 _atom_site_occupancy
  S  S0  1  0.92262812  0.07737188  0.75000000  1
  S  S1  1  0.75691935  0.32619053  0.49845249  1
  S  S2  1  0.67380947  0.24308065  0.00154751  1
  S  S3  1  0.24308065  0.67380947  0.50154751  1
  S  S4  1  0.32619053  0.75691935  -0.00154751  1
  S  S5  1  0.71925139  0.57771364  0.83017635  1
  S  S6  1  0.42228636  0.28074861  0.66982365  1
  S  S7  1  0.28074861  0.42228636  0.16982365  1
  S  S8  1  0.57771364  0.71925139  0.33017635  1
  S  S9  1  0.07737188  0.92262812  0.25000000  1
  N  N10  1  0.84155264  0.12415385  0.92950641  1
  N  N11  1  0.23853391  0.52002814  -0.01016060  1
  N  N12  1  0.15844736  0.87584615  0.07049359  1
  N  N13  1  0.83079445  0.53146427  0.66141034  1
  N  N14  1  0.46853573  0.16920555  0.83858966  1
  N  N15  1  0.16920555  0.46853573  0.33858966  1
  N  N16  1  0.53146427  0.83079445  0.16141034  1
  N  N17  1  0.52002814  0.23853391  0.48983940  1
  N  N18  1  0.76146609  0.47997186  0.01016060  1
  N  N19  1  0.47997186  0.76146609  0.51016060  1
  N  N20  1  0.12415385  0.84155264  0.42950641  1
  N  N21  1  0.87584615  0.15844736  0.57049359  1
