# generated using pymatgen
data_Ti2Te2P
_symmetry_space_group_name_H-M   'P 1'
_cell_length_a   9.86624831
_cell_length_b   9.86624813
_cell_length_c   9.86624796
_cell_angle_alpha   21.37731805
_cell_angle_beta   21.37732166
_cell_angle_gamma   21.37731747
_symmetry_Int_Tables_number   1
_chemical_formula_structural   Ti2Te2P
_chemical_formula_sum   'Ti2 Te2 P1'
_cell_volume   111.79144749
_cell_formula_units_Z   1
loop_
 _symmetry_equiv_pos_site_id
 _symmetry_equiv_pos_as_xyz
  1  'x, y, z'
loop_
 _atom_site_type_symbol
 _atom_site_label
 _atom_site_symmetry_multiplicity
 _atom_site_fract_x
 _atom_site_fract_y
 _atom_site_fract_z
 _atom_site_occupancy
  Ti  Ti0  1  0.37923910  0.37923910  0.37923910  1
  Ti  Ti1  1  0.62076090  0.62076090  0.62076090  1
  Te  Te2  1  0.77546122  0.77546122  0.77546122  1
  Te  Te3  1  0.22453878  0.22453878  0.22453878  1
  P  P4  1  0.00000000  0.00000000  0.00000000  1
