# generated using pymatgen
data_ZrBrN
_symmetry_space_group_name_H-M   'P 1'
_cell_length_a   10.03861584
_cell_length_b   10.03861568
_cell_length_c   10.03861567
_cell_angle_alpha   21.01094887
_cell_angle_beta   21.01095418
_cell_angle_gamma   21.01094652
_symmetry_Int_Tables_number   1
_chemical_formula_structural   ZrBrN
_chemical_formula_sum   'Zr2 Br2 N2'
_cell_volume   113.88877600
_cell_formula_units_Z   2
loop_
 _symmetry_equiv_pos_site_id
 _symmetry_equiv_pos_as_xyz
  1  'x, y, z'
loop_
 _atom_site_type_symbol
 _atom_site_label
 _atom_site_symmetry_multiplicity
 _atom_site_fract_x
 _atom_site_fract_y
 _atom_site_fract_z
 _atom_site_occupancy
  Zr  Zr0  1  0.12222445  0.12222445  0.12222445  1
  Zr  Zr1  1  0.87777555  0.87777555  0.87777555  1
  Br  Br2  1  0.38825105  0.38825105  0.38825105  1
  Br  Br3  1  0.61174895  0.61174895  0.61174895  1
  N  N4  1  0.19622627  0.19622627  0.19622627  1
  N  N5  1  0.80377373  0.80377373  0.80377373  1
