# generated using pymatgen
data_Al(HO)3
_symmetry_space_group_name_H-M   'P 1'
_cell_length_a   4.90185598
_cell_length_b   5.22498519
_cell_length_c   5.27215515
_cell_angle_alpha   64.17259307
_cell_angle_beta   79.16577660
_cell_angle_gamma   60.37784142
_symmetry_Int_Tables_number   1
_chemical_formula_structural   Al(HO)3
_chemical_formula_sum   'Al2 H6 O6'
_cell_volume   105.59305580
_cell_formula_units_Z   2
loop_
 _symmetry_equiv_pos_site_id
 _symmetry_equiv_pos_as_xyz
  1  'x, y, z'
loop_
 _atom_site_type_symbol
 _atom_site_label
 _atom_site_symmetry_multiplicity
 _atom_site_fract_x
 _atom_site_fract_y
 _atom_site_fract_z
 _atom_site_occupancy
  Al  Al0  1  0.65772144  0.67913886  0.00094292  1
  Al  Al1  1  0.34227856  0.32086114  -0.00094292  1
  H  H2  1  0.61767741  0.17633450  0.57942173  1
  H  H3  1  0.38232259  0.82366550  0.42057827  1
  H  H4  1  -0.05365153  0.37912484  0.68967571  1
  H  H5  1  0.05365153  0.62087516  0.31032429  1
  H  H6  1  0.13130502  0.89798128  0.77110776  1
  H  H7  1  0.86869498  0.10201872  0.22889224  1
  O  O8  1  0.64044727  0.09510619  0.78836503  1
  O  O9  1  0.35955273  0.90489381  0.21163497  1
  O  O10  1  -0.01893117  0.49153001  0.77703540  1
  O  O11  1  0.01893117  0.50846999  0.22296460  1
  O  O12  1  0.35032547  0.73225687  0.78065384  1
  O  O13  1  0.64967453  0.26774313  0.21934616  1
