# generated using pymatgen
data_AgBi(PSe3)2
_symmetry_space_group_name_H-M   'P 1'
_cell_length_a   13.88712078
_cell_length_b   13.88712085
_cell_length_c   13.88712084
_cell_angle_alpha   28.03002732
_cell_angle_beta   28.03002689
_cell_angle_gamma   28.03002644
_symmetry_Int_Tables_number   1
_chemical_formula_structural   AgBi(PSe3)2
_chemical_formula_sum   'Ag2 Bi2 P4 Se12'
_cell_volume   522.40646180
_cell_formula_units_Z   2
loop_
 _symmetry_equiv_pos_site_id
 _symmetry_equiv_pos_as_xyz
  1  'x, y, z'
loop_
 _atom_site_type_symbol
 _atom_site_label
 _atom_site_symmetry_multiplicity
 _atom_site_fract_x
 _atom_site_fract_y
 _atom_site_fract_z
 _atom_site_occupancy
  Ag  Ag0  1  0.59574241  0.59574241  0.59574241  1
  Ag  Ag1  1  0.40425759  0.40425759  0.40425759  1
  Bi  Bi2  1  0.08815357  0.08815357  0.08815357  1
  Bi  Bi3  1  0.91184643  0.91184643  0.91184643  1
  P  P4  1  0.72204437  0.72204437  0.72204437  1
  P  P5  1  0.77957518  0.77957518  0.77957518  1
  P  P6  1  0.22042482  0.22042482  0.22042482  1
  P  P7  1  0.27795563  0.27795563  0.27795563  1
  Se  Se8  1  0.49782659  0.86765088  0.25098437  1
  Se  Se9  1  0.27288486  0.99376912  0.62057592  1
  Se  Se10  1  0.50217341  0.13234912  0.74901563  1
  Se  Se11  1  0.62057592  0.27288486  0.99376912  1
  Se  Se12  1  0.00623088  0.37942408  0.72711514  1
  Se  Se13  1  0.72711514  0.00623088  0.37942408  1
  Se  Se14  1  0.37942408  0.72711514  0.00623088  1
  Se  Se15  1  0.99376912  0.62057592  0.27288486  1
  Se  Se16  1  0.86765088  0.25098437  0.49782659  1
  Se  Se17  1  0.74901563  0.50217341  0.13234912  1
  Se  Se18  1  0.13234912  0.74901563  0.50217341  1
  Se  Se19  1  0.25098437  0.49782659  0.86765088  1
