# generated using pymatgen
data_Ca(ClO2)2
_symmetry_space_group_name_H-M   'P 1'
_cell_length_a   5.71673555
_cell_length_b   5.74543530
_cell_length_c   6.79591477
_cell_angle_alpha   115.00596182
_cell_angle_beta   90.00000000
_cell_angle_gamma   90.00000000
_symmetry_Int_Tables_number   1
_chemical_formula_structural   Ca(ClO2)2
_chemical_formula_sum   'Ca2 Cl4 O8'
_cell_volume   202.28962104
_cell_formula_units_Z   2
loop_
 _symmetry_equiv_pos_site_id
 _symmetry_equiv_pos_as_xyz
  1  'x, y, z'
loop_
 _atom_site_type_symbol
 _atom_site_label
 _atom_site_symmetry_multiplicity
 _atom_site_fract_x
 _atom_site_fract_y
 _atom_site_fract_z
 _atom_site_occupancy
  Ca  Ca0  1  0.75000000  0.25000000  0.50000000  1
  Ca  Ca1  1  0.25000000  0.75000000  0.50000000  1
  Cl  Cl2  1  0.25000000  0.07688785  0.15377670  1
  Cl  Cl3  1  0.75000000  0.57688785  0.15377670  1
  Cl  Cl4  1  0.25000000  0.42311215  0.84622330  1
  Cl  Cl5  1  0.75000000  0.92311215  0.84622330  1
  O  O6  1  0.40968037  0.98806872  0.30017846  1
  O  O7  1  0.40968037  0.51193128  0.69982154  1
  O  O8  1  0.59031963  0.01193128  0.69982154  1
  O  O9  1  0.09031963  0.18789026  0.69982154  1
  O  O10  1  0.90968037  0.68789026  0.69982154  1
  O  O11  1  0.90968037  0.81210974  0.30017846  1
  O  O12  1  0.59031963  0.48806872  0.30017846  1
  O  O13  1  0.09031963  0.31210974  0.30017846  1
