# generated using pymatgen
data_FeCl3
_symmetry_space_group_name_H-M   'P 1'
_cell_length_a   6.52399019
_cell_length_b   6.52398989
_cell_length_c   6.52398976
_cell_angle_alpha   52.71489548
_cell_angle_beta   52.71489249
_cell_angle_gamma   52.71489290
_symmetry_Int_Tables_number   1
_chemical_formula_structural   FeCl3
_chemical_formula_sum   'Fe2 Cl6'
_cell_volume   162.78950999
_cell_formula_units_Z   2
loop_
 _symmetry_equiv_pos_site_id
 _symmetry_equiv_pos_as_xyz
  1  'x, y, z'
loop_
 _atom_site_type_symbol
 _atom_site_label
 _atom_site_symmetry_multiplicity
 _atom_site_fract_x
 _atom_site_fract_y
 _atom_site_fract_z
 _atom_site_occupancy
  Fe  Fe0  1  0.66653671  0.66653671  0.66653671  1
  Fe  Fe1  1  0.33346329  0.33346329  0.33346329  1
  Cl  Cl2  1  0.56772774  0.92454525  0.27921070  1
  Cl  Cl3  1  0.92454525  0.27921070  0.56772774  1
  Cl  Cl4  1  0.72078930  0.43227226  0.07545475  1
  Cl  Cl5  1  0.07545475  0.72078930  0.43227226  1
  Cl  Cl6  1  0.43227226  0.07545475  0.72078930  1
  Cl  Cl7  1  0.27921070  0.56772774  0.92454525  1
