# generated using pymatgen
data_HoBiO3
_symmetry_space_group_name_H-M   'P 1'
_cell_length_a   6.05849085
_cell_length_b   6.05849085
_cell_length_c   6.05849058
_cell_angle_alpha   59.38234438
_cell_angle_beta   59.38234438
_cell_angle_gamma   59.38234288
_symmetry_Int_Tables_number   1
_chemical_formula_structural   HoBiO3
_chemical_formula_sum   'Ho2 Bi2 O6'
_cell_volume   155.03512263
_cell_formula_units_Z   2
loop_
 _symmetry_equiv_pos_site_id
 _symmetry_equiv_pos_as_xyz
  1  'x, y, z'
loop_
 _atom_site_type_symbol
 _atom_site_label
 _atom_site_symmetry_multiplicity
 _atom_site_fract_x
 _atom_site_fract_y
 _atom_site_fract_z
 _atom_site_occupancy
  Ho  Ho0  1  0.14095281  0.14095281  0.14095281  1
  Ho  Ho1  1  0.85904719  0.85904719  0.85904719  1
  Bi  Bi2  1  0.36030507  0.36030507  0.36030507  1
  Bi  Bi3  1  0.63969493  0.63969493  0.63969493  1
  O  O4  1  0.00779406  0.78308016  0.45551464  1
  O  O5  1  0.54448536  0.99220594  0.21691984  1
  O  O6  1  0.21691984  0.54448536  0.99220594  1
  O  O7  1  0.78308016  0.45551464  0.00779406  1
  O  O8  1  0.45551464  0.00779406  0.78308016  1
  O  O9  1  0.99220594  0.21691984  0.54448536  1
