# generated using pymatgen
data_LiVF3
_symmetry_space_group_name_H-M   'P 1'
_cell_length_a   3.20804219
_cell_length_b   5.49098613
_cell_length_c   6.56515860
_cell_angle_alpha   90.00000000
_cell_angle_beta   104.13847439
_cell_angle_gamma   90.00000000
_symmetry_Int_Tables_number   1
_chemical_formula_structural   LiVF3
_chemical_formula_sum   'Li2 V2 F6'
_cell_volume   112.14417273
_cell_formula_units_Z   2
loop_
 _symmetry_equiv_pos_site_id
 _symmetry_equiv_pos_as_xyz
  1  'x, y, z'
loop_
 _atom_site_type_symbol
 _atom_site_label
 _atom_site_symmetry_multiplicity
 _atom_site_fract_x
 _atom_site_fract_y
 _atom_site_fract_z
 _atom_site_occupancy
  Li  Li0  1  0.93808756  0.75000000  0.87564617  1
  Li  Li1  1  0.06191244  0.25000000  0.12435383  1
  V  V2  1  0.66854044  0.75000000  0.33698615  1
  V  V3  1  0.33145956  0.25000000  0.66301385  1
  F  F4  1  0.83537997  0.00016534  0.67085198  1
  F  F5  1  0.83537997  0.49983466  0.67085198  1
  F  F6  1  0.50970462  0.75000000  0.01889742  1
  F  F7  1  0.49029538  0.25000000  0.98110258  1
  F  F8  1  0.16462003  0.50016534  0.32914802  1
  F  F9  1  0.16462003  -0.00016534  0.32914802  1
