# generated using pymatgen
data_TmClO
_symmetry_space_group_name_H-M   'P 1'
_cell_length_a   4.11513035
_cell_length_b   8.24672668
_cell_length_c   3.69948349
_cell_angle_alpha   90.00000000
_cell_angle_beta   90.00000000
_cell_angle_gamma   90.00000000
_symmetry_Int_Tables_number   1
_chemical_formula_structural   TmClO
_chemical_formula_sum   'Tm2 Cl2 O2'
_cell_volume   125.54698613
_cell_formula_units_Z   2
loop_
 _symmetry_equiv_pos_site_id
 _symmetry_equiv_pos_as_xyz
  1  'x, y, z'
loop_
 _atom_site_type_symbol
 _atom_site_label
 _atom_site_symmetry_multiplicity
 _atom_site_fract_x
 _atom_site_fract_y
 _atom_site_fract_z
 _atom_site_occupancy
  Tm  Tm0  1  0.00000000  0.12541900  0.50000000  1
  Tm  Tm1  1  0.50000000  0.87458100  0.00000000  1
  Cl  Cl2  1  0.00000000  0.35261575  0.00000000  1
  Cl  Cl3  1  0.50000000  0.64738425  0.50000000  1
  O  O4  1  0.00000000  0.96710082  0.00000000  1
  O  O5  1  0.50000000  0.03289918  0.50000000  1
