# generated using pymatgen
data_AlPd5I2
_symmetry_space_group_name_H-M   'P 1'
_cell_length_a   4.07246239
_cell_length_b   4.07246281
_cell_length_c   10.45505449
_cell_angle_alpha   101.23072718
_cell_angle_beta   101.23072961
_cell_angle_gamma   90.00000277
_symmetry_Int_Tables_number   1
_chemical_formula_structural   AlPd5I2
_chemical_formula_sum   'Al1 Pd5 I2'
_cell_volume   166.68964842
_cell_formula_units_Z   1
loop_
 _symmetry_equiv_pos_site_id
 _symmetry_equiv_pos_as_xyz
  1  'x, y, z'
loop_
 _atom_site_type_symbol
 _atom_site_label
 _atom_site_symmetry_multiplicity
 _atom_site_fract_x
 _atom_site_fract_y
 _atom_site_fract_z
 _atom_site_occupancy
  Al  Al0  1  0.50000000  0.50000000  -0.00000000  1
  Pd  Pd1  1  0.08811332  0.58811332  0.17622664  1
  Pd  Pd2  1  0.58811332  0.08811332  0.17622664  1
  Pd  Pd3  1  0.41188668  0.91188668  0.82377336  1
  Pd  Pd4  1  0.91188668  0.41188668  0.82377336  1
  Pd  Pd5  1  0.00000000  0.00000000  0.00000000  1
  I  I6  1  0.18307009  0.18307009  0.36614018  1
  I  I7  1  0.81692991  0.81692991  0.63385982  1
