# generated using pymatgen
data_Nb3Cl8
_symmetry_space_group_name_H-M   'P 1'
_cell_length_a   6.79329786
_cell_length_b   6.79329786
_cell_length_c   12.28282537
_cell_angle_alpha   90.00000000
_cell_angle_beta   90.00000000
_cell_angle_gamma   119.99999250
_symmetry_Int_Tables_number   1
_chemical_formula_structural   Nb3Cl8
_chemical_formula_sum   'Nb6 Cl16'
_cell_volume   490.89686236
_cell_formula_units_Z   2
loop_
 _symmetry_equiv_pos_site_id
 _symmetry_equiv_pos_as_xyz
  1  'x, y, z'
loop_
 _atom_site_type_symbol
 _atom_site_label
 _atom_site_symmetry_multiplicity
 _atom_site_fract_x
 _atom_site_fract_y
 _atom_site_fract_z
 _atom_site_occupancy
  Nb  Nb0  1  0.52789518  0.05579137  0.74631849  1
  Nb  Nb1  1  0.94420863  0.47210482  0.74631849  1
  Nb  Nb2  1  0.52789518  0.47210482  0.74631849  1
  Nb  Nb3  1  0.47210482  0.94420863  0.25368151  1
  Nb  Nb4  1  0.47210482  0.52789518  0.25368151  1
  Nb  Nb5  1  0.05579137  0.52789518  0.25368151  1
  Cl  Cl6  1  0.16786280  0.83213720  0.11867651  1
  Cl  Cl7  1  0.83213720  0.66427340  0.88132349  1
  Cl  Cl8  1  0.83213720  0.16786280  0.88132349  1
  Cl  Cl9  1  0.33572660  0.16786280  0.88132349  1
  Cl  Cl10  1  0.83583400  0.67166800  0.36432702  1
  Cl  Cl11  1  0.32833200  0.16416600  0.36432702  1
  Cl  Cl12  1  0.83583400  0.16416600  0.36432702  1
  Cl  Cl13  1  0.67166800  0.83583400  0.63567298  1
  Cl  Cl14  1  0.16416600  0.83583400  0.63567298  1
  Cl  Cl15  1  0.66427340  0.83213720  0.11867651  1
  Cl  Cl16  1  0.66666700  0.33333300  0.14282413  1
  Cl  Cl17  1  0.33333300  0.66666700  0.85717587  1
  Cl  Cl18  1  0.33333300  0.66666700  0.40464604  1
  Cl  Cl19  1  0.66666700  0.33333300  0.59535396  1
  Cl  Cl20  1  0.16416600  0.32833200  0.63567298  1
  Cl  Cl21  1  0.16786280  0.33572660  0.11867651  1
