# generated using pymatgen
data_SmGe2
_symmetry_space_group_name_H-M   'P 1'
_cell_length_a   4.06133624
_cell_length_b   4.06133599
_cell_length_c   8.75617872
_cell_angle_alpha   103.40969393
_cell_angle_beta   103.40969792
_cell_angle_gamma   90.00000236
_symmetry_Int_Tables_number   1
_chemical_formula_structural   SmGe2
_chemical_formula_sum   'Sm2 Ge4'
_cell_volume   136.43956731
_cell_formula_units_Z   2
loop_
 _symmetry_equiv_pos_site_id
 _symmetry_equiv_pos_as_xyz
  1  'x, y, z'
loop_
 _atom_site_type_symbol
 _atom_site_label
 _atom_site_symmetry_multiplicity
 _atom_site_fract_x
 _atom_site_fract_y
 _atom_site_fract_z
 _atom_site_occupancy
  Sm  Sm0  1  0.87500000  0.62500000  0.25000000  1
  Sm  Sm1  1  0.12500000  0.37500000  0.75000000  1
  Ge  Ge2  1  0.70372924  0.95372924  0.90745748  1
  Ge  Ge3  1  0.45372824  0.20372924  0.40745748  1
  Ge  Ge4  1  0.54627076  0.79627076  0.59254252  1
  Ge  Ge5  1  0.29627176  0.04627076  0.09254252  1
