# generated using pymatgen
data_BiClO
_symmetry_space_group_name_H-M   'P 1'
_cell_length_a   3.92740824
_cell_length_b   3.92740824
_cell_length_c   7.40282660
_cell_angle_alpha   90.00000000
_cell_angle_beta   90.00000000
_cell_angle_gamma   90.00000000
_symmetry_Int_Tables_number   1
_chemical_formula_structural   BiClO
_chemical_formula_sum   'Bi2 Cl2 O2'
_cell_volume   114.18516162
_cell_formula_units_Z   2
loop_
 _symmetry_equiv_pos_site_id
 _symmetry_equiv_pos_as_xyz
  1  'x, y, z'
loop_
 _atom_site_type_symbol
 _atom_site_label
 _atom_site_symmetry_multiplicity
 _atom_site_fract_x
 _atom_site_fract_y
 _atom_site_fract_z
 _atom_site_occupancy
  Bi  Bi0  1  0.00000000  0.50000000  0.82779025  1
  Bi  Bi1  1  0.50000000  0.00000000  0.17220975  1
  Cl  Cl2  1  0.50000000  0.00000000  0.64732105  1
  Cl  Cl3  1  0.00000000  0.50000000  0.35267895  1
  O  O4  1  0.00000000  0.00000000  0.00000000  1
  O  O5  1  0.50000000  0.50000000  0.00000000  1
