# generated using pymatgen
data_TiNbS4
_symmetry_space_group_name_H-M   'P 1'
_cell_length_a   3.39769915
_cell_length_b   6.80702727
_cell_length_c   6.75969254
_cell_angle_alpha   59.87906631
_cell_angle_beta   104.55566466
_cell_angle_gamma   119.94350340
_symmetry_Int_Tables_number   1
_chemical_formula_structural   TiNbS4
_chemical_formula_sum   'Ti1 Nb1 S4'
_cell_volume   117.17818966
_cell_formula_units_Z   1
loop_
 _symmetry_equiv_pos_site_id
 _symmetry_equiv_pos_as_xyz
  1  'x, y, z'
loop_
 _atom_site_type_symbol
 _atom_site_label
 _atom_site_symmetry_multiplicity
 _atom_site_fract_x
 _atom_site_fract_y
 _atom_site_fract_z
 _atom_site_occupancy
  Ti  Ti0  1  0.00000000  0.00000000  0.00000000  1
  Nb  Nb1  1  -0.00000000  0.50000000  -0.00000000  1
  S  S2  1  0.67212091  0.80093284  0.74237514  1
  S  S3  1  0.33844959  0.71278575  0.25132767  1
  S  S4  1  0.66155041  0.28721425  0.74867233  1
  S  S5  1  0.32787909  0.19906716  0.25762486  1
